* File: sky130_osu_sc_15T_hs__dff_l.pex.spice
* Created: Fri Nov 12 14:29:02 2021
* Program "Calibre xRC"
* Version "v2021.2_28.15"
* Nominal Temperature: 27C
* Circuit Temperature: 27C
* 
.subckt PM_SKY130_OSU_SC_15T_HS__DFF_L%GND 1 2 3 4 5 81 83 91 93 103 105 115 117
+ 124 126 133 152 154
c173 81 0 1.27355e-19 $X=-0.045 $Y=0
r174 152 154 2.85021 $w=3.05e-07 $l=6.12e-06 $layer=MET1_cond $X=0.34 $Y=0.152
+ $X2=6.46 $Y2=0.152
r175 131 133 28.3797 $w=1.68e-07 $l=4.35e-07 $layer=LI1_cond $X=6.545 $Y=0.305
+ $X2=6.545 $Y2=0.74
r176 122 124 36.5348 $w=1.68e-07 $l=5.6e-07 $layer=LI1_cond $X=5.165 $Y=0.305
+ $X2=5.165 $Y2=0.865
r177 118 141 3.10218 $w=3.05e-07 $l=8.5e-08 $layer=LI1_cond $X=4.3 $Y=0.152
+ $X2=4.215 $Y2=0.152
r178 113 141 3.51065 $w=1.7e-07 $l=1.53e-07 $layer=LI1_cond $X=4.215 $Y=0.305
+ $X2=4.215 $Y2=0.152
r179 113 115 36.5348 $w=1.68e-07 $l=5.6e-07 $layer=LI1_cond $X=4.215 $Y=0.305
+ $X2=4.215 $Y2=0.865
r180 105 141 3.10218 $w=3.05e-07 $l=8.5e-08 $layer=LI1_cond $X=4.13 $Y=0.152
+ $X2=4.215 $Y2=0.152
r181 101 103 28.3797 $w=1.68e-07 $l=4.35e-07 $layer=LI1_cond $X=2.465 $Y=0.305
+ $X2=2.465 $Y2=0.74
r182 94 137 3.10218 $w=3.05e-07 $l=8.5e-08 $layer=LI1_cond $X=0.8 $Y=0.152
+ $X2=0.715 $Y2=0.152
r183 89 137 3.51065 $w=1.7e-07 $l=1.53e-07 $layer=LI1_cond $X=0.715 $Y=0.305
+ $X2=0.715 $Y2=0.152
r184 89 91 36.5348 $w=1.68e-07 $l=5.6e-07 $layer=LI1_cond $X=0.715 $Y=0.305
+ $X2=0.715 $Y2=0.865
r185 83 137 3.10218 $w=3.05e-07 $l=8.5e-08 $layer=LI1_cond $X=0.63 $Y=0.152
+ $X2=0.715 $Y2=0.152
r186 81 154 1.86 $w=1.7e-07 $l=8.5e-07 $layer=mcon $count=5 $X=6.46 $Y=0.19
+ $X2=6.46 $Y2=0.19
r187 81 152 1.86 $w=1.7e-07 $l=8.5e-07 $layer=mcon $count=5 $X=0.34 $Y=0.19
+ $X2=0.34 $Y2=0.19
r188 81 131 3.51065 $w=1.7e-07 $l=1.53e-07 $layer=LI1_cond $X=6.545 $Y=0.152
+ $X2=6.545 $Y2=0.305
r189 81 126 3.10218 $w=3.05e-07 $l=8.5e-08 $layer=LI1_cond $X=6.545 $Y=0.152
+ $X2=6.46 $Y2=0.152
r190 81 122 3.51065 $w=1.7e-07 $l=1.53e-07 $layer=LI1_cond $X=5.165 $Y=0.152
+ $X2=5.165 $Y2=0.305
r191 81 117 3.10218 $w=3.05e-07 $l=8.5e-08 $layer=LI1_cond $X=5.165 $Y=0.152
+ $X2=5.08 $Y2=0.152
r192 81 127 3.10218 $w=3.05e-07 $l=8.5e-08 $layer=LI1_cond $X=5.165 $Y=0.152
+ $X2=5.25 $Y2=0.152
r193 81 101 3.51065 $w=1.7e-07 $l=1.53e-07 $layer=LI1_cond $X=2.465 $Y=0.152
+ $X2=2.465 $Y2=0.305
r194 81 93 3.10218 $w=3.05e-07 $l=8.5e-08 $layer=LI1_cond $X=2.465 $Y=0.152
+ $X2=2.38 $Y2=0.152
r195 81 106 3.10218 $w=3.05e-07 $l=8.5e-08 $layer=LI1_cond $X=2.465 $Y=0.152
+ $X2=2.55 $Y2=0.152
r196 81 126 25.6938 $w=3.03e-07 $l=6.8e-07 $layer=LI1_cond $X=5.78 $Y=0.152
+ $X2=6.46 $Y2=0.152
r197 81 127 20.0261 $w=3.03e-07 $l=5.3e-07 $layer=LI1_cond $X=5.78 $Y=0.152
+ $X2=5.25 $Y2=0.152
r198 81 117 24.9381 $w=3.03e-07 $l=6.6e-07 $layer=LI1_cond $X=4.42 $Y=0.152
+ $X2=5.08 $Y2=0.152
r199 81 118 4.5342 $w=3.03e-07 $l=1.2e-07 $layer=LI1_cond $X=4.42 $Y=0.152
+ $X2=4.3 $Y2=0.152
r200 81 105 14.7362 $w=3.03e-07 $l=3.9e-07 $layer=LI1_cond $X=3.74 $Y=0.152
+ $X2=4.13 $Y2=0.152
r201 81 106 19.2704 $w=3.03e-07 $l=5.1e-07 $layer=LI1_cond $X=3.06 $Y=0.152
+ $X2=2.55 $Y2=0.152
r202 81 93 25.6938 $w=3.03e-07 $l=6.8e-07 $layer=LI1_cond $X=1.7 $Y=0.152
+ $X2=2.38 $Y2=0.152
r203 81 94 8.3127 $w=3.03e-07 $l=2.2e-07 $layer=LI1_cond $X=1.02 $Y=0.152
+ $X2=0.8 $Y2=0.152
r204 81 83 10.9577 $w=3.03e-07 $l=2.9e-07 $layer=LI1_cond $X=0.34 $Y=0.152
+ $X2=0.63 $Y2=0.152
r205 5 133 182 $w=1.7e-07 $l=2.24332e-07 $layer=licon1_NDIFF $count=1 $X=6.405
+ $Y=0.575 $X2=6.545 $Y2=0.74
r206 4 124 182 $w=1.7e-07 $l=3.46915e-07 $layer=licon1_NDIFF $count=1 $X=5.04
+ $Y=0.575 $X2=5.165 $Y2=0.865
r207 3 115 182 $w=1.7e-07 $l=3.53129e-07 $layer=licon1_NDIFF $count=1 $X=4.075
+ $Y=0.575 $X2=4.215 $Y2=0.865
r208 2 103 182 $w=1.7e-07 $l=2.24332e-07 $layer=licon1_NDIFF $count=1 $X=2.325
+ $Y=0.575 $X2=2.465 $Y2=0.74
r209 1 91 182 $w=1.7e-07 $l=3.53129e-07 $layer=licon1_NDIFF $count=1 $X=0.575
+ $Y=0.575 $X2=0.715 $Y2=0.865
.ends

.subckt PM_SKY130_OSU_SC_15T_HS__DFF_L%VDD 1 2 3 4 5 61 63 70 74 82 86 94 98 104
+ 108 114 125 128 132
c98 70 0 5.41559e-20 $X=0.715 $Y=3.545
c99 1 0 1.59851e-19 $X=0.575 $Y=2.825
r100 128 132 2.85021 $w=3.05e-07 $l=6.12e-06 $layer=MET1_cond $X=0.34 $Y=5.397
+ $X2=6.46 $Y2=5.397
r101 125 132 1.86 $w=1.7e-07 $l=8.5e-07 $layer=mcon $count=5 $X=6.46 $Y=5.36
+ $X2=6.46 $Y2=5.36
r102 112 125 3.51065 $w=1.7e-07 $l=1.52e-07 $layer=LI1_cond $X=6.545 $Y=5.245
+ $X2=6.545 $Y2=5.397
r103 112 114 44.3636 $w=1.68e-07 $l=6.8e-07 $layer=LI1_cond $X=6.545 $Y=5.245
+ $X2=6.545 $Y2=4.565
r104 109 123 3.10218 $w=3.05e-07 $l=8.5e-08 $layer=LI1_cond $X=5.25 $Y=5.397
+ $X2=5.165 $Y2=5.397
r105 109 111 20.0261 $w=3.03e-07 $l=5.3e-07 $layer=LI1_cond $X=5.25 $Y=5.397
+ $X2=5.78 $Y2=5.397
r106 108 125 3.10218 $w=3.05e-07 $l=8.5e-08 $layer=LI1_cond $X=6.46 $Y=5.397
+ $X2=6.545 $Y2=5.397
r107 108 111 25.6938 $w=3.03e-07 $l=6.8e-07 $layer=LI1_cond $X=6.46 $Y=5.397
+ $X2=5.78 $Y2=5.397
r108 104 107 66.5455 $w=1.68e-07 $l=1.02e-06 $layer=LI1_cond $X=5.165 $Y=3.545
+ $X2=5.165 $Y2=4.565
r109 102 123 3.51065 $w=1.7e-07 $l=1.52e-07 $layer=LI1_cond $X=5.165 $Y=5.245
+ $X2=5.165 $Y2=5.397
r110 102 107 44.3636 $w=1.68e-07 $l=6.8e-07 $layer=LI1_cond $X=5.165 $Y=5.245
+ $X2=5.165 $Y2=4.565
r111 99 121 3.10218 $w=3.05e-07 $l=8.5e-08 $layer=LI1_cond $X=4.3 $Y=5.397
+ $X2=4.215 $Y2=5.397
r112 99 101 4.5342 $w=3.03e-07 $l=1.2e-07 $layer=LI1_cond $X=4.3 $Y=5.397
+ $X2=4.42 $Y2=5.397
r113 98 123 3.10218 $w=3.05e-07 $l=8.5e-08 $layer=LI1_cond $X=5.08 $Y=5.397
+ $X2=5.165 $Y2=5.397
r114 98 101 24.9381 $w=3.03e-07 $l=6.6e-07 $layer=LI1_cond $X=5.08 $Y=5.397
+ $X2=4.42 $Y2=5.397
r115 94 97 88.7273 $w=1.68e-07 $l=1.36e-06 $layer=LI1_cond $X=4.215 $Y=3.205
+ $X2=4.215 $Y2=4.565
r116 92 121 3.51065 $w=1.7e-07 $l=1.52e-07 $layer=LI1_cond $X=4.215 $Y=5.245
+ $X2=4.215 $Y2=5.397
r117 92 97 44.3636 $w=1.68e-07 $l=6.8e-07 $layer=LI1_cond $X=4.215 $Y=5.245
+ $X2=4.215 $Y2=4.565
r118 89 91 25.6938 $w=3.03e-07 $l=6.8e-07 $layer=LI1_cond $X=3.06 $Y=5.397
+ $X2=3.74 $Y2=5.397
r119 87 120 3.10218 $w=3.05e-07 $l=8.5e-08 $layer=LI1_cond $X=2.55 $Y=5.397
+ $X2=2.465 $Y2=5.397
r120 87 89 19.2704 $w=3.03e-07 $l=5.1e-07 $layer=LI1_cond $X=2.55 $Y=5.397
+ $X2=3.06 $Y2=5.397
r121 86 121 3.10218 $w=3.05e-07 $l=8.5e-08 $layer=LI1_cond $X=4.13 $Y=5.397
+ $X2=4.215 $Y2=5.397
r122 86 91 14.7362 $w=3.03e-07 $l=3.9e-07 $layer=LI1_cond $X=4.13 $Y=5.397
+ $X2=3.74 $Y2=5.397
r123 82 85 66.5455 $w=1.68e-07 $l=1.02e-06 $layer=LI1_cond $X=2.465 $Y=3.545
+ $X2=2.465 $Y2=4.565
r124 80 120 3.51065 $w=1.7e-07 $l=1.52e-07 $layer=LI1_cond $X=2.465 $Y=5.245
+ $X2=2.465 $Y2=5.397
r125 80 85 44.3636 $w=1.68e-07 $l=6.8e-07 $layer=LI1_cond $X=2.465 $Y=5.245
+ $X2=2.465 $Y2=4.565
r126 77 79 25.6938 $w=3.03e-07 $l=6.8e-07 $layer=LI1_cond $X=1.02 $Y=5.397
+ $X2=1.7 $Y2=5.397
r127 75 118 3.10218 $w=3.05e-07 $l=8.5e-08 $layer=LI1_cond $X=0.8 $Y=5.397
+ $X2=0.715 $Y2=5.397
r128 75 77 8.3127 $w=3.03e-07 $l=2.2e-07 $layer=LI1_cond $X=0.8 $Y=5.397
+ $X2=1.02 $Y2=5.397
r129 74 120 3.10218 $w=3.05e-07 $l=8.5e-08 $layer=LI1_cond $X=2.38 $Y=5.397
+ $X2=2.465 $Y2=5.397
r130 74 79 25.6938 $w=3.03e-07 $l=6.8e-07 $layer=LI1_cond $X=2.38 $Y=5.397
+ $X2=1.7 $Y2=5.397
r131 70 73 66.5455 $w=1.68e-07 $l=1.02e-06 $layer=LI1_cond $X=0.715 $Y=3.545
+ $X2=0.715 $Y2=4.565
r132 68 118 3.51065 $w=1.7e-07 $l=1.52e-07 $layer=LI1_cond $X=0.715 $Y=5.245
+ $X2=0.715 $Y2=5.397
r133 68 73 44.3636 $w=1.68e-07 $l=6.8e-07 $layer=LI1_cond $X=0.715 $Y=5.245
+ $X2=0.715 $Y2=4.565
r134 65 128 1.86 $w=1.7e-07 $l=8.5e-07 $layer=mcon $count=5 $X=0.34 $Y=5.36
+ $X2=0.34 $Y2=5.36
r135 63 118 3.10218 $w=3.05e-07 $l=8.5e-08 $layer=LI1_cond $X=0.63 $Y=5.397
+ $X2=0.715 $Y2=5.397
r136 63 65 10.9577 $w=3.03e-07 $l=2.9e-07 $layer=LI1_cond $X=0.63 $Y=5.397
+ $X2=0.34 $Y2=5.397
r137 61 125 182 $w=1.7e-07 $l=2.43824e-07 $layer=licon1_NTAP_notbjt $count=1
+ $X=6.255 $Y=5.245 $X2=6.46 $Y2=5.33
r138 61 111 182 $w=1.7e-07 $l=2.43824e-07 $layer=licon1_NTAP_notbjt $count=1
+ $X=5.575 $Y=5.245 $X2=5.78 $Y2=5.33
r139 61 123 182 $w=1.7e-07 $l=2.43824e-07 $layer=licon1_NTAP_notbjt $count=1
+ $X=4.895 $Y=5.245 $X2=5.1 $Y2=5.33
r140 61 101 182 $w=1.7e-07 $l=2.43824e-07 $layer=licon1_NTAP_notbjt $count=1
+ $X=4.215 $Y=5.245 $X2=4.42 $Y2=5.33
r141 61 91 182 $w=1.7e-07 $l=2.43824e-07 $layer=licon1_NTAP_notbjt $count=1
+ $X=3.535 $Y=5.245 $X2=3.74 $Y2=5.33
r142 61 89 182 $w=1.7e-07 $l=2.43824e-07 $layer=licon1_NTAP_notbjt $count=1
+ $X=2.855 $Y=5.245 $X2=3.06 $Y2=5.33
r143 61 120 182 $w=1.7e-07 $l=2.43824e-07 $layer=licon1_NTAP_notbjt $count=1
+ $X=2.175 $Y=5.245 $X2=2.38 $Y2=5.33
r144 61 79 182 $w=1.7e-07 $l=2.43824e-07 $layer=licon1_NTAP_notbjt $count=1
+ $X=1.495 $Y=5.245 $X2=1.7 $Y2=5.33
r145 61 77 182 $w=1.7e-07 $l=2.43824e-07 $layer=licon1_NTAP_notbjt $count=1
+ $X=0.815 $Y=5.245 $X2=1.02 $Y2=5.33
r146 61 65 182 $w=1.7e-07 $l=2.43824e-07 $layer=licon1_NTAP_notbjt $count=1
+ $X=0.135 $Y=5.245 $X2=0.34 $Y2=5.33
r147 5 114 600 $w=1.7e-07 $l=1.06771e-06 $layer=licon1_PDIFF $count=1 $X=6.405
+ $Y=3.565 $X2=6.545 $Y2=4.565
r148 4 107 300 $w=1.7e-07 $l=1.80142e-06 $layer=licon1_PDIFF $count=2 $X=5.04
+ $Y=2.825 $X2=5.165 $Y2=4.565
r149 4 104 300 $w=1.7e-07 $l=7.8e-07 $layer=licon1_PDIFF $count=2 $X=5.04
+ $Y=2.825 $X2=5.165 $Y2=3.545
r150 3 97 240 $w=1.7e-07 $l=1.80865e-06 $layer=licon1_PDIFF $count=2 $X=4.075
+ $Y=2.825 $X2=4.215 $Y2=4.565
r151 3 94 240 $w=1.7e-07 $l=4.44522e-07 $layer=licon1_PDIFF $count=2 $X=4.075
+ $Y=2.825 $X2=4.215 $Y2=3.205
r152 2 85 300 $w=1.7e-07 $l=1.80865e-06 $layer=licon1_PDIFF $count=2 $X=2.325
+ $Y=2.825 $X2=2.465 $Y2=4.565
r153 2 82 300 $w=1.7e-07 $l=7.86893e-07 $layer=licon1_PDIFF $count=2 $X=2.325
+ $Y=2.825 $X2=2.465 $Y2=3.545
r154 1 73 300 $w=1.7e-07 $l=1.80865e-06 $layer=licon1_PDIFF $count=2 $X=0.575
+ $Y=2.825 $X2=0.715 $Y2=4.565
r155 1 70 300 $w=1.7e-07 $l=7.86893e-07 $layer=licon1_PDIFF $count=2 $X=0.575
+ $Y=2.825 $X2=0.715 $Y2=3.545
.ends

.subckt PM_SKY130_OSU_SC_15T_HS__DFF_L%A_75_292# 1 3 13 17 20 22 23 28 29 30 31
+ 32 34 37 41 46 47 50
c86 29 0 1.29912e-19 $X=1.405 $Y=1.505
c87 28 0 1.59851e-19 $X=0.625 $Y=2.84
c88 22 0 5.41559e-20 $X=0.51 $Y=2.505
r89 49 50 8.64139 $w=3.38e-07 $l=1.7e-07 $layer=LI1_cond $X=1.582 $Y=0.985
+ $X2=1.582 $Y2=1.155
r90 46 48 8.53353 $w=2.83e-07 $l=1.65e-07 $layer=LI1_cond $X=0.567 $Y=2.505
+ $X2=0.567 $Y2=2.67
r91 46 47 8.53353 $w=2.83e-07 $l=1.65e-07 $layer=LI1_cond $X=0.567 $Y=2.505
+ $X2=0.567 $Y2=2.34
r92 41 43 46.0977 $w=3.38e-07 $l=1.36e-06 $layer=LI1_cond $X=1.59 $Y=3.205
+ $X2=1.59 $Y2=4.565
r93 39 41 3.05058 $w=3.38e-07 $l=9e-08 $layer=LI1_cond $X=1.59 $Y=3.115 $X2=1.59
+ $Y2=3.205
r94 37 49 4.06745 $w=3.38e-07 $l=1.2e-07 $layer=LI1_cond $X=1.59 $Y=0.865
+ $X2=1.59 $Y2=0.985
r95 34 50 17.2888 $w=1.68e-07 $l=2.65e-07 $layer=LI1_cond $X=1.49 $Y=1.42
+ $X2=1.49 $Y2=1.155
r96 31 39 7.85115 $w=1.7e-07 $l=2.61534e-07 $layer=LI1_cond $X=1.42 $Y=2.925
+ $X2=1.59 $Y2=3.115
r97 31 32 46.3209 $w=1.68e-07 $l=7.1e-07 $layer=LI1_cond $X=1.42 $Y=2.925
+ $X2=0.71 $Y2=2.925
r98 29 34 6.81649 $w=1.7e-07 $l=1.20208e-07 $layer=LI1_cond $X=1.405 $Y=1.505
+ $X2=1.49 $Y2=1.42
r99 29 30 45.3422 $w=1.68e-07 $l=6.95e-07 $layer=LI1_cond $X=1.405 $Y=1.505
+ $X2=0.71 $Y2=1.505
r100 28 32 6.81649 $w=1.7e-07 $l=1.20208e-07 $layer=LI1_cond $X=0.625 $Y=2.84
+ $X2=0.71 $Y2=2.925
r101 28 48 11.0909 $w=1.68e-07 $l=1.7e-07 $layer=LI1_cond $X=0.625 $Y=2.84
+ $X2=0.625 $Y2=2.67
r102 25 30 6.81649 $w=1.7e-07 $l=1.20208e-07 $layer=LI1_cond $X=0.625 $Y=1.59
+ $X2=0.71 $Y2=1.505
r103 25 47 48.9305 $w=1.68e-07 $l=7.5e-07 $layer=LI1_cond $X=0.625 $Y=1.59
+ $X2=0.625 $Y2=2.34
r104 22 46 145.28 $w=1.7e-07 $l=1.7e-07 $layer=licon1_POLY $count=1 $X=0.51
+ $Y=2.505 $X2=0.51 $Y2=2.505
r105 22 24 48.4159 $w=2.7e-07 $l=1.65e-07 $layer=POLY_cond $X=0.51 $Y=2.505
+ $X2=0.51 $Y2=2.67
r106 22 23 48.4159 $w=2.7e-07 $l=1.65e-07 $layer=POLY_cond $X=0.51 $Y=2.505
+ $X2=0.51 $Y2=2.34
r107 20 23 374.319 $w=1.5e-07 $l=7.3e-07 $layer=POLY_cond $X=0.45 $Y=1.61
+ $X2=0.45 $Y2=2.34
r108 19 20 49.7366 $w=2e-07 $l=1.5e-07 $layer=POLY_cond $X=0.475 $Y=1.46
+ $X2=0.475 $Y2=1.61
r109 17 24 592.245 $w=1.5e-07 $l=1.155e-06 $layer=POLY_cond $X=0.5 $Y=3.825
+ $X2=0.5 $Y2=2.67
r110 13 19 289.713 $w=1.5e-07 $l=5.65e-07 $layer=POLY_cond $X=0.5 $Y=0.895
+ $X2=0.5 $Y2=1.46
r111 3 43 240 $w=1.7e-07 $l=1.84908e-06 $layer=licon1_PDIFF $count=2 $X=1.365
+ $Y=2.825 $X2=1.59 $Y2=4.565
r112 3 41 240 $w=1.7e-07 $l=4.79479e-07 $layer=licon1_PDIFF $count=2 $X=1.365
+ $Y=2.825 $X2=1.59 $Y2=3.205
r113 1 37 182 $w=1.7e-07 $l=3.86458e-07 $layer=licon1_NDIFF $count=1 $X=1.365
+ $Y=0.575 $X2=1.59 $Y2=0.865
.ends

.subckt PM_SKY130_OSU_SC_15T_HS__DFF_L%D 3 7 10 14 19
c43 19 0 1.41836e-19 $X=0.99 $Y=1.96
c44 10 0 1.12321e-19 $X=0.99 $Y=1.96
r45 14 19 9.3 $w=1.7e-07 $l=1.7e-07 $layer=mcon $count=1 $X=0.99 $Y=1.96
+ $X2=0.99 $Y2=1.96
r46 10 14 145.28 $w=1.7e-07 $l=1.7e-07 $layer=licon1_POLY $count=1 $X=0.99
+ $Y=1.96 $X2=0.99 $Y2=1.96
r47 10 12 48.4159 $w=2.7e-07 $l=1.65e-07 $layer=POLY_cond $X=0.99 $Y=1.96
+ $X2=0.99 $Y2=2.125
r48 10 11 48.4159 $w=2.7e-07 $l=1.65e-07 $layer=POLY_cond $X=0.99 $Y=1.96
+ $X2=0.99 $Y2=1.795
r49 7 12 871.702 $w=1.5e-07 $l=1.7e-06 $layer=POLY_cond $X=0.93 $Y=3.825
+ $X2=0.93 $Y2=2.125
r50 3 11 461.489 $w=1.5e-07 $l=9e-07 $layer=POLY_cond $X=0.93 $Y=0.895 $X2=0.93
+ $Y2=1.795
.ends

.subckt PM_SKY130_OSU_SC_15T_HS__DFF_L%CK 3 7 11 15 19 21 23 26 28 32 36 40 44
+ 47 51 55 57 58 60 66 73 77 78 79 80 87
c213 58 0 6.79641e-20 $X=3.185 $Y=2.33
c214 51 0 1.98654e-19 $X=1.83 $Y=1.59
c215 47 0 1.86602e-19 $X=1.745 $Y=2.33
c216 28 0 1.41836e-19 $X=1.35 $Y=2.505
c217 7 0 1.29912e-19 $X=1.89 $Y=0.895
r218 80 85 0.103375 $w=2.3e-07 $l=1.45e-07 $layer=MET1_cond $X=3.725 $Y=2.33
+ $X2=3.58 $Y2=2.33
r219 79 87 0.103375 $w=2.3e-07 $l=1.45e-07 $layer=MET1_cond $X=4.43 $Y=2.33
+ $X2=4.575 $Y2=2.33
r220 79 80 0.678832 $w=1.7e-07 $l=7.05e-07 $layer=MET1_cond $X=4.43 $Y=2.33
+ $X2=3.725 $Y2=2.33
r221 78 82 0.103375 $w=2.3e-07 $l=1.45e-07 $layer=MET1_cond $X=1.495 $Y=2.33
+ $X2=1.35 $Y2=2.33
r222 77 85 0.103375 $w=2.3e-07 $l=1.45e-07 $layer=MET1_cond $X=3.435 $Y=2.33
+ $X2=3.58 $Y2=2.33
r223 77 78 1.86799 $w=1.7e-07 $l=1.94e-06 $layer=MET1_cond $X=3.435 $Y=2.33
+ $X2=1.495 $Y2=2.33
r224 73 85 9.3 $w=1.7e-07 $l=1.7e-07 $layer=mcon $count=1 $X=3.58 $Y=2.33
+ $X2=3.58 $Y2=2.33
r225 73 75 11.4171 $w=1.68e-07 $l=1.75e-07 $layer=LI1_cond $X=3.58 $Y=2.33
+ $X2=3.58 $Y2=2.505
r226 66 82 9.3 $w=1.7e-07 $l=1.7e-07 $layer=mcon $count=1 $X=1.35 $Y=2.33
+ $X2=1.35 $Y2=2.33
r227 66 69 11.4171 $w=1.68e-07 $l=1.75e-07 $layer=LI1_cond $X=1.35 $Y=2.33
+ $X2=1.35 $Y2=2.505
r228 60 87 9.3 $w=1.7e-07 $l=1.7e-07 $layer=mcon $count=1 $X=4.575 $Y=2.33
+ $X2=4.575 $Y2=2.33
r229 60 63 11.4171 $w=1.68e-07 $l=1.75e-07 $layer=LI1_cond $X=4.575 $Y=2.33
+ $X2=4.575 $Y2=2.505
r230 57 73 0.716491 $w=1.7e-07 $l=8.5e-08 $layer=LI1_cond $X=3.495 $Y=2.33
+ $X2=3.58 $Y2=2.33
r231 57 58 20.2246 $w=1.68e-07 $l=3.1e-07 $layer=LI1_cond $X=3.495 $Y=2.33
+ $X2=3.185 $Y2=2.33
r232 53 58 6.81649 $w=1.7e-07 $l=1.20208e-07 $layer=LI1_cond $X=3.1 $Y=2.245
+ $X2=3.185 $Y2=2.33
r233 53 55 42.7326 $w=1.68e-07 $l=6.55e-07 $layer=LI1_cond $X=3.1 $Y=2.245
+ $X2=3.1 $Y2=1.59
r234 49 51 42.7326 $w=1.68e-07 $l=6.55e-07 $layer=LI1_cond $X=1.83 $Y=2.245
+ $X2=1.83 $Y2=1.59
r235 48 66 0.716491 $w=1.7e-07 $l=8.5e-08 $layer=LI1_cond $X=1.435 $Y=2.33
+ $X2=1.35 $Y2=2.33
r236 47 49 6.81649 $w=1.7e-07 $l=1.20208e-07 $layer=LI1_cond $X=1.745 $Y=2.33
+ $X2=1.83 $Y2=2.245
r237 47 48 20.2246 $w=1.68e-07 $l=3.1e-07 $layer=LI1_cond $X=1.745 $Y=2.33
+ $X2=1.435 $Y2=2.33
r238 46 63 145.28 $w=1.7e-07 $l=1.7e-07 $layer=licon1_POLY $count=1 $X=4.575
+ $Y=2.505 $X2=4.575 $Y2=2.505
r239 43 44 48.5235 $w=2.05e-07 $l=1.5e-07 $layer=POLY_cond $X=4.457 $Y=1.425
+ $X2=4.457 $Y2=1.575
r240 40 75 145.28 $w=1.7e-07 $l=1.7e-07 $layer=licon1_POLY $count=1 $X=3.58
+ $Y=2.505 $X2=3.58 $Y2=2.505
r241 40 42 48.4159 $w=2.7e-07 $l=1.65e-07 $layer=POLY_cond $X=3.58 $Y=2.505
+ $X2=3.58 $Y2=2.67
r242 36 55 145.28 $w=1.7e-07 $l=1.7e-07 $layer=licon1_POLY $count=1 $X=3.1
+ $Y=1.59 $X2=3.1 $Y2=1.59
r243 36 37 48.4159 $w=2.7e-07 $l=1.65e-07 $layer=POLY_cond $X=3.1 $Y=1.59
+ $X2=3.1 $Y2=1.425
r244 32 51 145.28 $w=1.7e-07 $l=1.7e-07 $layer=licon1_POLY $count=1 $X=1.83
+ $Y=1.59 $X2=1.83 $Y2=1.59
r245 32 33 48.4159 $w=2.7e-07 $l=1.65e-07 $layer=POLY_cond $X=1.83 $Y=1.59
+ $X2=1.83 $Y2=1.425
r246 28 69 145.28 $w=1.7e-07 $l=1.7e-07 $layer=licon1_POLY $count=1 $X=1.35
+ $Y=2.505 $X2=1.35 $Y2=2.505
r247 28 30 48.4159 $w=2.7e-07 $l=1.65e-07 $layer=POLY_cond $X=1.35 $Y=2.505
+ $X2=1.35 $Y2=2.67
r248 26 46 38.571 $w=3.25e-07 $l=1.87029e-07 $layer=POLY_cond $X=4.485 $Y=2.34
+ $X2=4.532 $Y2=2.505
r249 26 44 392.266 $w=1.5e-07 $l=7.65e-07 $layer=POLY_cond $X=4.485 $Y=2.34
+ $X2=4.485 $Y2=1.575
r250 21 46 38.571 $w=3.25e-07 $l=2.09893e-07 $layer=POLY_cond $X=4.43 $Y=2.67
+ $X2=4.532 $Y2=2.505
r251 21 23 592.245 $w=1.5e-07 $l=1.155e-06 $layer=POLY_cond $X=4.43 $Y=2.67
+ $X2=4.43 $Y2=3.825
r252 19 43 271.766 $w=1.5e-07 $l=5.3e-07 $layer=POLY_cond $X=4.43 $Y=0.895
+ $X2=4.43 $Y2=1.425
r253 15 42 592.245 $w=1.5e-07 $l=1.155e-06 $layer=POLY_cond $X=3.64 $Y=3.825
+ $X2=3.64 $Y2=2.67
r254 11 37 271.766 $w=1.5e-07 $l=5.3e-07 $layer=POLY_cond $X=3.04 $Y=0.895
+ $X2=3.04 $Y2=1.425
r255 7 33 271.766 $w=1.5e-07 $l=5.3e-07 $layer=POLY_cond $X=1.89 $Y=0.895
+ $X2=1.89 $Y2=1.425
r256 3 30 592.245 $w=1.5e-07 $l=1.155e-06 $layer=POLY_cond $X=1.29 $Y=3.825
+ $X2=1.29 $Y2=2.67
.ends

.subckt PM_SKY130_OSU_SC_15T_HS__DFF_L%A_32_115# 1 3 11 15 17 18 21 22 27 31 34
+ 37 41 47 52 56 61 62 63 68
c116 47 0 1.5821e-19 $X=2.42 $Y=2.505
c117 31 0 6.36774e-20 $X=2.68 $Y=3.825
c118 22 0 1.86602e-19 $X=2.325 $Y=2.505
c119 21 0 6.79641e-20 $X=2.605 $Y=2.505
c120 15 0 6.36774e-20 $X=2.25 $Y=3.825
r121 63 65 0.103375 $w=2.3e-07 $l=1.45e-07 $layer=MET1_cond $X=0.43 $Y=1.59
+ $X2=0.285 $Y2=1.59
r122 62 68 0.103375 $w=2.3e-07 $l=1.45e-07 $layer=MET1_cond $X=2.185 $Y=1.59
+ $X2=2.33 $Y2=1.59
r123 62 63 1.68986 $w=1.7e-07 $l=1.755e-06 $layer=MET1_cond $X=2.185 $Y=1.59
+ $X2=0.43 $Y2=1.59
r124 59 68 9.3 $w=1.7e-07 $l=1.7e-07 $layer=mcon $count=1 $X=2.33 $Y=1.59
+ $X2=2.33 $Y2=1.59
r125 59 61 4.94595 $w=2.22e-07 $l=9e-08 $layer=LI1_cond $X=2.33 $Y=1.55 $X2=2.42
+ $Y2=1.55
r126 54 56 7.50267 $w=1.68e-07 $l=1.15e-07 $layer=LI1_cond $X=0.17 $Y=3
+ $X2=0.285 $Y2=3
r127 52 65 9.3 $w=1.7e-07 $l=1.7e-07 $layer=mcon $count=1 $X=0.285 $Y=1.59
+ $X2=0.285 $Y2=1.59
r128 49 52 4.81931 $w=2.73e-07 $l=1.15e-07 $layer=LI1_cond $X=0.17 $Y=1.537
+ $X2=0.285 $Y2=1.537
r129 45 61 2.3025 $w=1.7e-07 $l=1.25e-07 $layer=LI1_cond $X=2.42 $Y=1.675
+ $X2=2.42 $Y2=1.55
r130 45 47 54.1497 $w=1.68e-07 $l=8.3e-07 $layer=LI1_cond $X=2.42 $Y=1.675
+ $X2=2.42 $Y2=2.505
r131 41 43 88.7273 $w=1.68e-07 $l=1.36e-06 $layer=LI1_cond $X=0.285 $Y=3.205
+ $X2=0.285 $Y2=4.565
r132 39 56 0.716491 $w=1.7e-07 $l=8.5e-08 $layer=LI1_cond $X=0.285 $Y=3.085
+ $X2=0.285 $Y2=3
r133 39 41 7.82888 $w=1.68e-07 $l=1.2e-07 $layer=LI1_cond $X=0.285 $Y=3.085
+ $X2=0.285 $Y2=3.205
r134 35 52 3.55113 $w=1.7e-07 $l=1.37e-07 $layer=LI1_cond $X=0.285 $Y=1.4
+ $X2=0.285 $Y2=1.537
r135 35 37 34.9037 $w=1.68e-07 $l=5.35e-07 $layer=LI1_cond $X=0.285 $Y=1.4
+ $X2=0.285 $Y2=0.865
r136 34 54 0.716491 $w=1.7e-07 $l=8.5e-08 $layer=LI1_cond $X=0.17 $Y=2.915
+ $X2=0.17 $Y2=3
r137 33 49 3.55113 $w=1.7e-07 $l=1.38e-07 $layer=LI1_cond $X=0.17 $Y=1.675
+ $X2=0.17 $Y2=1.537
r138 33 34 80.8984 $w=1.68e-07 $l=1.24e-06 $layer=LI1_cond $X=0.17 $Y=1.675
+ $X2=0.17 $Y2=2.915
r139 29 31 607.628 $w=1.5e-07 $l=1.185e-06 $layer=POLY_cond $X=2.68 $Y=2.64
+ $X2=2.68 $Y2=3.825
r140 25 27 287.149 $w=1.5e-07 $l=5.6e-07 $layer=POLY_cond $X=2.68 $Y=1.455
+ $X2=2.68 $Y2=0.895
r141 24 47 145.28 $w=1.7e-07 $l=1.7e-07 $layer=licon1_POLY $count=1 $X=2.42
+ $Y=2.505 $X2=2.42 $Y2=2.505
r142 22 24 21.1065 $w=2.7e-07 $l=9.5e-08 $layer=POLY_cond $X=2.325 $Y=2.505
+ $X2=2.42 $Y2=2.505
r143 21 29 29.8935 $w=2.7e-07 $l=1.68375e-07 $layer=POLY_cond $X=2.605 $Y=2.505
+ $X2=2.68 $Y2=2.64
r144 21 24 41.1021 $w=2.7e-07 $l=1.85e-07 $layer=POLY_cond $X=2.605 $Y=2.505
+ $X2=2.42 $Y2=2.505
r145 20 61 145.28 $w=1.7e-07 $l=1.7e-07 $layer=licon1_POLY $count=1 $X=2.42
+ $Y=1.59 $X2=2.42 $Y2=1.59
r146 18 20 21.1065 $w=2.7e-07 $l=9.5e-08 $layer=POLY_cond $X=2.325 $Y=1.59
+ $X2=2.42 $Y2=1.59
r147 17 25 29.8935 $w=2.7e-07 $l=1.68375e-07 $layer=POLY_cond $X=2.605 $Y=1.59
+ $X2=2.68 $Y2=1.455
r148 17 20 41.1021 $w=2.7e-07 $l=1.85e-07 $layer=POLY_cond $X=2.605 $Y=1.59
+ $X2=2.42 $Y2=1.59
r149 13 22 29.8935 $w=2.7e-07 $l=1.68375e-07 $layer=POLY_cond $X=2.25 $Y=2.64
+ $X2=2.325 $Y2=2.505
r150 13 15 607.628 $w=1.5e-07 $l=1.185e-06 $layer=POLY_cond $X=2.25 $Y=2.64
+ $X2=2.25 $Y2=3.825
r151 9 18 29.8935 $w=2.7e-07 $l=1.68375e-07 $layer=POLY_cond $X=2.25 $Y=1.455
+ $X2=2.325 $Y2=1.59
r152 9 11 287.149 $w=1.5e-07 $l=5.6e-07 $layer=POLY_cond $X=2.25 $Y=1.455
+ $X2=2.25 $Y2=0.895
r153 3 43 240 $w=1.7e-07 $l=1.80142e-06 $layer=licon1_PDIFF $count=2 $X=0.16
+ $Y=2.825 $X2=0.285 $Y2=4.565
r154 3 41 240 $w=1.7e-07 $l=4.38064e-07 $layer=licon1_PDIFF $count=2 $X=0.16
+ $Y=2.825 $X2=0.285 $Y2=3.205
r155 1 37 182 $w=1.7e-07 $l=3.46915e-07 $layer=licon1_NDIFF $count=1 $X=0.16
+ $Y=0.575 $X2=0.285 $Y2=0.865
.ends

.subckt PM_SKY130_OSU_SC_15T_HS__DFF_L%A_243_89# 1 3 11 14 15 16 19 21 25 27 30
+ 33 37 39 40 42 45 51 54 57 62 63 66 70
c175 37 0 1.98654e-19 $X=1.41 $Y=1.5
c176 19 0 1.12321e-19 $X=1.89 $Y=3.825
r177 68 70 17.615 $w=1.68e-07 $l=2.7e-07 $layer=LI1_cond $X=4.645 $Y=2.925
+ $X2=4.915 $Y2=2.925
r178 64 66 17.615 $w=1.68e-07 $l=2.7e-07 $layer=LI1_cond $X=4.645 $Y=1.93
+ $X2=4.915 $Y2=1.93
r179 62 70 0.716491 $w=1.7e-07 $l=8.5e-08 $layer=LI1_cond $X=4.915 $Y=2.84
+ $X2=4.915 $Y2=2.925
r180 61 66 0.716491 $w=1.7e-07 $l=8.5e-08 $layer=LI1_cond $X=4.915 $Y=2.015
+ $X2=4.915 $Y2=1.93
r181 61 62 53.8235 $w=1.68e-07 $l=8.25e-07 $layer=LI1_cond $X=4.915 $Y=2.015
+ $X2=4.915 $Y2=2.84
r182 57 59 88.7273 $w=1.68e-07 $l=1.36e-06 $layer=LI1_cond $X=4.645 $Y=3.205
+ $X2=4.645 $Y2=4.565
r183 55 68 0.716491 $w=1.7e-07 $l=8.5e-08 $layer=LI1_cond $X=4.645 $Y=3.01
+ $X2=4.645 $Y2=2.925
r184 55 57 12.7219 $w=1.68e-07 $l=1.95e-07 $layer=LI1_cond $X=4.645 $Y=3.01
+ $X2=4.645 $Y2=3.205
r185 54 64 0.716491 $w=1.7e-07 $l=8.5e-08 $layer=LI1_cond $X=4.645 $Y=1.845
+ $X2=4.645 $Y2=1.93
r186 53 63 5.16603 $w=1.7e-07 $l=8.5e-08 $layer=LI1_cond $X=4.645 $Y=1.675
+ $X2=4.645 $Y2=1.59
r187 53 54 11.0909 $w=1.68e-07 $l=1.7e-07 $layer=LI1_cond $X=4.645 $Y=1.675
+ $X2=4.645 $Y2=1.845
r188 49 63 5.16603 $w=1.7e-07 $l=8.5e-08 $layer=LI1_cond $X=4.645 $Y=1.505
+ $X2=4.645 $Y2=1.59
r189 49 51 41.754 $w=1.68e-07 $l=6.4e-07 $layer=LI1_cond $X=4.645 $Y=1.505
+ $X2=4.645 $Y2=0.865
r190 45 63 1.34256 $w=1.7e-07 $l=8.5e-08 $layer=LI1_cond $X=4.56 $Y=1.59
+ $X2=4.645 $Y2=1.59
r191 45 47 63.9358 $w=1.68e-07 $l=9.8e-07 $layer=LI1_cond $X=4.56 $Y=1.59
+ $X2=3.58 $Y2=1.59
r192 42 47 145.28 $w=1.7e-07 $l=1.7e-07 $layer=licon1_POLY $count=1 $X=3.58
+ $Y=1.59 $X2=3.58 $Y2=1.59
r193 42 44 48.4159 $w=2.7e-07 $l=1.65e-07 $layer=POLY_cond $X=3.58 $Y=1.59
+ $X2=3.58 $Y2=1.755
r194 42 43 48.4159 $w=2.7e-07 $l=1.65e-07 $layer=POLY_cond $X=3.58 $Y=1.59
+ $X2=3.58 $Y2=1.425
r195 35 37 61.5319 $w=1.5e-07 $l=1.2e-07 $layer=POLY_cond $X=1.29 $Y=1.5
+ $X2=1.41 $Y2=1.5
r196 33 43 271.766 $w=1.5e-07 $l=5.3e-07 $layer=POLY_cond $X=3.64 $Y=0.895
+ $X2=3.64 $Y2=1.425
r197 30 44 107.681 $w=1.5e-07 $l=2.1e-07 $layer=POLY_cond $X=3.52 $Y=1.965
+ $X2=3.52 $Y2=1.755
r198 28 40 20.4101 $w=1.5e-07 $l=7.5e-08 $layer=POLY_cond $X=3.115 $Y=2.04
+ $X2=3.04 $Y2=2.04
r199 27 30 26.9307 $w=1.5e-07 $l=1.06066e-07 $layer=POLY_cond $X=3.445 $Y=2.04
+ $X2=3.52 $Y2=1.965
r200 27 28 169.213 $w=1.5e-07 $l=3.3e-07 $layer=POLY_cond $X=3.445 $Y=2.04
+ $X2=3.115 $Y2=2.04
r201 23 40 5.30422 $w=1.5e-07 $l=7.5e-08 $layer=POLY_cond $X=3.04 $Y=2.115
+ $X2=3.04 $Y2=2.04
r202 23 25 876.83 $w=1.5e-07 $l=1.71e-06 $layer=POLY_cond $X=3.04 $Y=2.115
+ $X2=3.04 $Y2=3.825
r203 22 39 20.4101 $w=1.5e-07 $l=7.5e-08 $layer=POLY_cond $X=1.965 $Y=2.04
+ $X2=1.89 $Y2=2.04
r204 21 40 20.4101 $w=1.5e-07 $l=7.5e-08 $layer=POLY_cond $X=2.965 $Y=2.04
+ $X2=3.04 $Y2=2.04
r205 21 22 512.766 $w=1.5e-07 $l=1e-06 $layer=POLY_cond $X=2.965 $Y=2.04
+ $X2=1.965 $Y2=2.04
r206 17 39 5.30422 $w=1.5e-07 $l=7.5e-08 $layer=POLY_cond $X=1.89 $Y=2.115
+ $X2=1.89 $Y2=2.04
r207 17 19 876.83 $w=1.5e-07 $l=1.71e-06 $layer=POLY_cond $X=1.89 $Y=2.115
+ $X2=1.89 $Y2=3.825
r208 15 39 20.4101 $w=1.5e-07 $l=7.5e-08 $layer=POLY_cond $X=1.815 $Y=2.04
+ $X2=1.89 $Y2=2.04
r209 15 16 169.213 $w=1.5e-07 $l=3.3e-07 $layer=POLY_cond $X=1.815 $Y=2.04
+ $X2=1.485 $Y2=2.04
r210 14 16 26.9307 $w=1.5e-07 $l=1.06066e-07 $layer=POLY_cond $X=1.41 $Y=1.965
+ $X2=1.485 $Y2=2.04
r211 13 37 2.83073 $w=1.5e-07 $l=7.5e-08 $layer=POLY_cond $X=1.41 $Y=1.575
+ $X2=1.41 $Y2=1.5
r212 13 14 199.979 $w=1.5e-07 $l=3.9e-07 $layer=POLY_cond $X=1.41 $Y=1.575
+ $X2=1.41 $Y2=1.965
r213 9 35 2.83073 $w=1.5e-07 $l=7.5e-08 $layer=POLY_cond $X=1.29 $Y=1.425
+ $X2=1.29 $Y2=1.5
r214 9 11 271.766 $w=1.5e-07 $l=5.3e-07 $layer=POLY_cond $X=1.29 $Y=1.425
+ $X2=1.29 $Y2=0.895
r215 3 59 240 $w=1.7e-07 $l=1.80865e-06 $layer=licon1_PDIFF $count=2 $X=4.505
+ $Y=2.825 $X2=4.645 $Y2=4.565
r216 3 57 240 $w=1.7e-07 $l=4.44522e-07 $layer=licon1_PDIFF $count=2 $X=4.505
+ $Y=2.825 $X2=4.645 $Y2=3.205
r217 1 51 182 $w=1.7e-07 $l=3.53129e-07 $layer=licon1_NDIFF $count=1 $X=4.505
+ $Y=0.575 $X2=4.645 $Y2=0.865
.ends

.subckt PM_SKY130_OSU_SC_15T_HS__DFF_L%A_785_89# 1 3 11 15 23 27 30 34 35 38 39
+ 40 42 48 52 58 61 62 63 68
c134 39 0 8.77106e-20 $X=6.305 $Y=2.595
c135 34 0 2.20654e-19 $X=6.215 $Y=1.93
r136 63 65 0.103375 $w=2.3e-07 $l=1.45e-07 $layer=MET1_cond $X=4.205 $Y=1.93
+ $X2=4.06 $Y2=1.93
r137 62 68 0.103375 $w=2.3e-07 $l=1.45e-07 $layer=MET1_cond $X=6.07 $Y=1.93
+ $X2=6.215 $Y2=1.93
r138 62 63 1.79578 $w=1.7e-07 $l=1.865e-06 $layer=MET1_cond $X=6.07 $Y=1.93
+ $X2=4.205 $Y2=1.93
r139 58 68 9.3 $w=1.7e-07 $l=1.7e-07 $layer=mcon $count=1 $X=6.215 $Y=1.93
+ $X2=6.215 $Y2=1.93
r140 56 61 1.34256 $w=1.7e-07 $l=8.5e-08 $layer=LI1_cond $X=5.68 $Y=1.93
+ $X2=5.595 $Y2=1.93
r141 56 58 34.9037 $w=1.68e-07 $l=5.35e-07 $layer=LI1_cond $X=5.68 $Y=1.93
+ $X2=6.215 $Y2=1.93
r142 52 54 88.7273 $w=1.68e-07 $l=1.36e-06 $layer=LI1_cond $X=5.595 $Y=3.205
+ $X2=5.595 $Y2=4.565
r143 50 61 5.16603 $w=1.7e-07 $l=8.5e-08 $layer=LI1_cond $X=5.595 $Y=2.015
+ $X2=5.595 $Y2=1.93
r144 50 52 77.6364 $w=1.68e-07 $l=1.19e-06 $layer=LI1_cond $X=5.595 $Y=2.015
+ $X2=5.595 $Y2=3.205
r145 46 61 5.16603 $w=1.7e-07 $l=8.5e-08 $layer=LI1_cond $X=5.595 $Y=1.845
+ $X2=5.595 $Y2=1.93
r146 46 48 63.9358 $w=1.68e-07 $l=9.8e-07 $layer=LI1_cond $X=5.595 $Y=1.845
+ $X2=5.595 $Y2=0.865
r147 42 65 9.3 $w=1.7e-07 $l=1.7e-07 $layer=mcon $count=1 $X=4.06 $Y=1.93
+ $X2=4.06 $Y2=1.93
r148 39 40 49.7366 $w=2e-07 $l=1.5e-07 $layer=POLY_cond $X=6.305 $Y=2.595
+ $X2=6.305 $Y2=2.745
r149 37 38 49.7366 $w=2e-07 $l=1.5e-07 $layer=POLY_cond $X=6.305 $Y=1.39
+ $X2=6.305 $Y2=1.54
r150 36 39 256.383 $w=1.5e-07 $l=5e-07 $layer=POLY_cond $X=6.28 $Y=2.095
+ $X2=6.28 $Y2=2.595
r151 35 38 115.372 $w=1.5e-07 $l=2.25e-07 $layer=POLY_cond $X=6.28 $Y=1.765
+ $X2=6.28 $Y2=1.54
r152 34 58 145.28 $w=1.7e-07 $l=1.7e-07 $layer=licon1_POLY $count=1 $X=6.215
+ $Y=1.93 $X2=6.215 $Y2=1.93
r153 34 36 48.2986 $w=2.75e-07 $l=1.65e-07 $layer=POLY_cond $X=6.217 $Y=1.93
+ $X2=6.217 $Y2=2.095
r154 34 35 48.2986 $w=2.75e-07 $l=1.65e-07 $layer=POLY_cond $X=6.217 $Y=1.93
+ $X2=6.217 $Y2=1.765
r155 30 42 145.28 $w=1.7e-07 $l=1.7e-07 $layer=licon1_POLY $count=1 $X=4.06
+ $Y=1.93 $X2=4.06 $Y2=1.93
r156 30 32 48.4159 $w=2.7e-07 $l=1.65e-07 $layer=POLY_cond $X=4.06 $Y=1.93
+ $X2=4.06 $Y2=2.095
r157 30 31 48.4159 $w=2.7e-07 $l=1.65e-07 $layer=POLY_cond $X=4.06 $Y=1.93
+ $X2=4.06 $Y2=1.765
r158 27 40 743.511 $w=1.5e-07 $l=1.45e-06 $layer=POLY_cond $X=6.33 $Y=4.195
+ $X2=6.33 $Y2=2.745
r159 23 37 276.894 $w=1.5e-07 $l=5.4e-07 $layer=POLY_cond $X=6.33 $Y=0.85
+ $X2=6.33 $Y2=1.39
r160 15 32 887.085 $w=1.5e-07 $l=1.73e-06 $layer=POLY_cond $X=4 $Y=3.825 $X2=4
+ $Y2=2.095
r161 11 31 446.106 $w=1.5e-07 $l=8.7e-07 $layer=POLY_cond $X=4 $Y=0.895 $X2=4
+ $Y2=1.765
r162 3 54 240 $w=1.7e-07 $l=1.80865e-06 $layer=licon1_PDIFF $count=2 $X=5.455
+ $Y=2.825 $X2=5.595 $Y2=4.565
r163 3 52 240 $w=1.7e-07 $l=4.44522e-07 $layer=licon1_PDIFF $count=2 $X=5.455
+ $Y=2.825 $X2=5.595 $Y2=3.205
r164 1 48 182 $w=1.7e-07 $l=3.53129e-07 $layer=licon1_NDIFF $count=1 $X=5.455
+ $Y=0.575 $X2=5.595 $Y2=0.865
.ends

.subckt PM_SKY130_OSU_SC_15T_HS__DFF_L%A_623_115# 1 3 11 15 20 25 26 27 28 29 32
+ 36 41 45 46 51
c116 46 0 1.5821e-19 $X=2.905 $Y=1.59
c117 25 0 1.57671e-19 $X=2.76 $Y=1.59
r118 46 48 0.103375 $w=2.3e-07 $l=1.45e-07 $layer=MET1_cond $X=2.905 $Y=1.59
+ $X2=2.76 $Y2=1.59
r119 45 51 0.103375 $w=2.3e-07 $l=1.45e-07 $layer=MET1_cond $X=5.03 $Y=1.59
+ $X2=5.175 $Y2=1.59
r120 45 46 2.04612 $w=1.7e-07 $l=2.125e-06 $layer=MET1_cond $X=5.03 $Y=1.59
+ $X2=2.905 $Y2=1.59
r121 41 51 9.3 $w=1.7e-07 $l=1.7e-07 $layer=mcon $count=1 $X=5.175 $Y=1.59
+ $X2=5.175 $Y2=1.59
r122 36 38 34.5733 $w=3.38e-07 $l=1.02e-06 $layer=LI1_cond $X=3.34 $Y=3.545
+ $X2=3.34 $Y2=4.565
r123 34 36 18.134 $w=3.38e-07 $l=5.35e-07 $layer=LI1_cond $X=3.34 $Y=3.01
+ $X2=3.34 $Y2=3.545
r124 30 32 7.45698 $w=3.38e-07 $l=2.2e-07 $layer=LI1_cond $X=3.34 $Y=1.085
+ $X2=3.34 $Y2=0.865
r125 28 34 7.85115 $w=1.7e-07 $l=2.08207e-07 $layer=LI1_cond $X=3.17 $Y=2.925
+ $X2=3.34 $Y2=3.01
r126 28 29 21.2032 $w=1.68e-07 $l=3.25e-07 $layer=LI1_cond $X=3.17 $Y=2.925
+ $X2=2.845 $Y2=2.925
r127 26 30 7.85115 $w=1.7e-07 $l=2.08207e-07 $layer=LI1_cond $X=3.17 $Y=1.17
+ $X2=3.34 $Y2=1.085
r128 26 27 21.2032 $w=1.68e-07 $l=3.25e-07 $layer=LI1_cond $X=3.17 $Y=1.17
+ $X2=2.845 $Y2=1.17
r129 25 48 9.3 $w=1.7e-07 $l=1.7e-07 $layer=mcon $count=1 $X=2.76 $Y=1.59
+ $X2=2.76 $Y2=1.59
r130 23 29 6.81649 $w=1.7e-07 $l=1.20208e-07 $layer=LI1_cond $X=2.76 $Y=2.84
+ $X2=2.845 $Y2=2.925
r131 23 25 81.5508 $w=1.68e-07 $l=1.25e-06 $layer=LI1_cond $X=2.76 $Y=2.84
+ $X2=2.76 $Y2=1.59
r132 22 27 6.81649 $w=1.7e-07 $l=1.20208e-07 $layer=LI1_cond $X=2.76 $Y=1.255
+ $X2=2.845 $Y2=1.17