* File: sky130_osu_sc_12T_ms__dffnr_l.pex.spice
* Created: Fri Feb 12 20:30:18 2021
* Program "Calibre xRC"
* Version "v2018.4_34.26"
* Nominal Temperature: 27C
* Circuit Temperature: 27C
* 
.subckt PM_SKY130_OSU_SC_12T_MS__DFFNR_L%GND 1 2 3 4 5 6 7 8 9 84 88 90 97 99
+ 106 108 115 117 127 129 139 141 148 150 157 159 166 185 187
c248 157 0 5.73867e-20 $X=7.9 $Y=0.74
c249 139 0 1.71621e-19 $X=6.09 $Y=0.755
c250 115 0 3.07651e-19 $X=2.59 $Y=0.755
c251 97 0 5.44281e-20 $X=1.21 $Y=0.74
c252 84 0 1.61973e-19 $X=-0.05 $Y=0
r253 185 187 4.11698 $w=3.05e-07 $l=8.84e-06 $layer=MET1_cond $X=0.335 $Y=0.152
+ $X2=9.175 $Y2=0.152
r254 179 180 3.10218 $w=3.05e-07 $l=8.5e-08 $layer=LI1_cond $X=8.935 $Y=0.152
+ $X2=8.85 $Y2=0.152
r255 164 180 3.51065 $w=1.7e-07 $l=1.53e-07 $layer=LI1_cond $X=8.85 $Y=0.305
+ $X2=8.85 $Y2=0.152
r256 164 166 28.3797 $w=1.68e-07 $l=4.35e-07 $layer=LI1_cond $X=8.85 $Y=0.305
+ $X2=8.85 $Y2=0.74
r257 159 180 3.10218 $w=3.05e-07 $l=8.5e-08 $layer=LI1_cond $X=8.765 $Y=0.152
+ $X2=8.85 $Y2=0.152
r258 155 157 28.3797 $w=1.68e-07 $l=4.35e-07 $layer=LI1_cond $X=7.9 $Y=0.305
+ $X2=7.9 $Y2=0.74
r259 151 175 3.10218 $w=3.05e-07 $l=8.5e-08 $layer=LI1_cond $X=7.125 $Y=0.152
+ $X2=7.04 $Y2=0.152
r260 146 175 3.51065 $w=1.7e-07 $l=1.53e-07 $layer=LI1_cond $X=7.04 $Y=0.305
+ $X2=7.04 $Y2=0.152
r261 146 148 28.3797 $w=1.68e-07 $l=4.35e-07 $layer=LI1_cond $X=7.04 $Y=0.305
+ $X2=7.04 $Y2=0.74
r262 142 174 3.10218 $w=3.05e-07 $l=8.5e-08 $layer=LI1_cond $X=6.175 $Y=0.152
+ $X2=6.09 $Y2=0.152
r263 141 175 3.10218 $w=3.05e-07 $l=8.5e-08 $layer=LI1_cond $X=6.955 $Y=0.152
+ $X2=7.04 $Y2=0.152
r264 137 174 3.51065 $w=1.7e-07 $l=1.53e-07 $layer=LI1_cond $X=6.09 $Y=0.305
+ $X2=6.09 $Y2=0.152
r265 137 139 29.3583 $w=1.68e-07 $l=4.5e-07 $layer=LI1_cond $X=6.09 $Y=0.305
+ $X2=6.09 $Y2=0.755
r266 129 174 3.10218 $w=3.05e-07 $l=8.5e-08 $layer=LI1_cond $X=6.005 $Y=0.152
+ $X2=6.09 $Y2=0.152
r267 125 127 28.3797 $w=1.68e-07 $l=4.35e-07 $layer=LI1_cond $X=4.34 $Y=0.305
+ $X2=4.34 $Y2=0.74
r268 118 170 3.10218 $w=3.05e-07 $l=8.5e-08 $layer=LI1_cond $X=2.675 $Y=0.152
+ $X2=2.59 $Y2=0.152
r269 113 170 3.51065 $w=1.7e-07 $l=1.53e-07 $layer=LI1_cond $X=2.59 $Y=0.305
+ $X2=2.59 $Y2=0.152
r270 113 115 29.3583 $w=1.68e-07 $l=4.5e-07 $layer=LI1_cond $X=2.59 $Y=0.305
+ $X2=2.59 $Y2=0.755
r271 109 169 3.10218 $w=3.05e-07 $l=8.5e-08 $layer=LI1_cond $X=2.155 $Y=0.152
+ $X2=2.07 $Y2=0.152
r272 108 170 3.10218 $w=3.05e-07 $l=8.5e-08 $layer=LI1_cond $X=2.505 $Y=0.152
+ $X2=2.59 $Y2=0.152
r273 104 169 3.51065 $w=1.7e-07 $l=1.53e-07 $layer=LI1_cond $X=2.07 $Y=0.305
+ $X2=2.07 $Y2=0.152
r274 104 106 28.3797 $w=1.68e-07 $l=4.35e-07 $layer=LI1_cond $X=2.07 $Y=0.305
+ $X2=2.07 $Y2=0.74
r275 100 168 3.10218 $w=3.05e-07 $l=8.5e-08 $layer=LI1_cond $X=1.295 $Y=0.152
+ $X2=1.21 $Y2=0.152
r276 99 169 3.10218 $w=3.05e-07 $l=8.5e-08 $layer=LI1_cond $X=1.985 $Y=0.152
+ $X2=2.07 $Y2=0.152
r277 95 168 3.51065 $w=1.7e-07 $l=1.53e-07 $layer=LI1_cond $X=1.21 $Y=0.305
+ $X2=1.21 $Y2=0.152
r278 95 97 28.3797 $w=1.68e-07 $l=4.35e-07 $layer=LI1_cond $X=1.21 $Y=0.305
+ $X2=1.21 $Y2=0.74
r279 90 168 3.10218 $w=3.05e-07 $l=8.5e-08 $layer=LI1_cond $X=1.125 $Y=0.152
+ $X2=1.21 $Y2=0.152
r280 86 88 29.3583 $w=1.68e-07 $l=4.5e-07 $layer=LI1_cond $X=0.26 $Y=0.305
+ $X2=0.26 $Y2=0.755
r281 84 86 4.39984 $w=1.7e-07 $l=1.92023e-07 $layer=LI1_cond $X=0.172 $Y=0.152
+ $X2=0.26 $Y2=0.305
r282 84 91 3.15839 $w=3.05e-07 $l=1.73e-07 $layer=LI1_cond $X=0.172 $Y=0.152
+ $X2=0.345 $Y2=0.152
r283 84 179 9.0684 $w=3.03e-07 $l=2.4e-07 $layer=LI1_cond $X=9.175 $Y=0.152
+ $X2=8.935 $Y2=0.152
r284 84 187 1.32857 $w=1.7e-07 $l=1.19e-06 $layer=mcon $count=7 $X=9.175 $Y=0.19
+ $X2=9.175 $Y2=0.19
r285 84 185 1.32857 $w=1.7e-07 $l=1.19e-06 $layer=mcon $count=7 $X=0.335 $Y=0.19
+ $X2=0.335 $Y2=0.19
r286 84 155 3.51065 $w=1.7e-07 $l=1.53e-07 $layer=LI1_cond $X=7.9 $Y=0.152
+ $X2=7.9 $Y2=0.305
r287 84 150 3.10218 $w=3.05e-07 $l=8.5e-08 $layer=LI1_cond $X=7.9 $Y=0.152
+ $X2=7.815 $Y2=0.152
r288 84 160 3.10218 $w=3.05e-07 $l=8.5e-08 $layer=LI1_cond $X=7.9 $Y=0.152
+ $X2=7.985 $Y2=0.152
r289 84 125 3.51065 $w=1.7e-07 $l=1.53e-07 $layer=LI1_cond $X=4.34 $Y=0.152
+ $X2=4.34 $Y2=0.305
r290 84 117 3.10218 $w=3.05e-07 $l=8.5e-08 $layer=LI1_cond $X=4.34 $Y=0.152
+ $X2=4.255 $Y2=0.152
r291 84 130 3.10218 $w=3.05e-07 $l=8.5e-08 $layer=LI1_cond $X=4.34 $Y=0.152
+ $X2=4.425 $Y2=0.152
r292 84 159 10.202 $w=3.03e-07 $l=2.7e-07 $layer=LI1_cond $X=8.495 $Y=0.152
+ $X2=8.765 $Y2=0.152
r293 84 160 19.2704 $w=3.03e-07 $l=5.1e-07 $layer=LI1_cond $X=8.495 $Y=0.152
+ $X2=7.985 $Y2=0.152
r294 84 150 25.6938 $w=3.03e-07 $l=6.8e-07 $layer=LI1_cond $X=7.135 $Y=0.152
+ $X2=7.815 $Y2=0.152
r295 84 151 0.37785 $w=3.03e-07 $l=1e-08 $layer=LI1_cond $X=7.135 $Y=0.152
+ $X2=7.125 $Y2=0.152
r296 84 141 18.8925 $w=3.03e-07 $l=5e-07 $layer=LI1_cond $X=6.455 $Y=0.152
+ $X2=6.955 $Y2=0.152
r297 84 142 10.5798 $w=3.03e-07 $l=2.8e-07 $layer=LI1_cond $X=6.455 $Y=0.152
+ $X2=6.175 $Y2=0.152
r298 84 129 8.69055 $w=3.03e-07 $l=2.3e-07 $layer=LI1_cond $X=5.775 $Y=0.152
+ $X2=6.005 $Y2=0.152
r299 84 130 25.316 $w=3.03e-07 $l=6.7e-07 $layer=LI1_cond $X=5.095 $Y=0.152
+ $X2=4.425 $Y2=0.152
r300 84 117 19.6482 $w=3.03e-07 $l=5.2e-07 $layer=LI1_cond $X=3.735 $Y=0.152
+ $X2=4.255 $Y2=0.152
r301 84 118 14.3583 $w=3.03e-07 $l=3.8e-07 $layer=LI1_cond $X=3.055 $Y=0.152
+ $X2=2.675 $Y2=0.152
r302 84 108 4.91205 $w=3.03e-07 $l=1.3e-07 $layer=LI1_cond $X=2.375 $Y=0.152
+ $X2=2.505 $Y2=0.152
r303 84 109 8.3127 $w=3.03e-07 $l=2.2e-07 $layer=LI1_cond $X=2.375 $Y=0.152
+ $X2=2.155 $Y2=0.152
r304 84 99 10.9577 $w=3.03e-07 $l=2.9e-07 $layer=LI1_cond $X=1.695 $Y=0.152
+ $X2=1.985 $Y2=0.152
r305 84 100 15.114 $w=3.03e-07 $l=4e-07 $layer=LI1_cond $X=1.695 $Y=0.152
+ $X2=1.295 $Y2=0.152
r306 84 90 4.15635 $w=3.03e-07 $l=1.1e-07 $layer=LI1_cond $X=1.015 $Y=0.152
+ $X2=1.125 $Y2=0.152
r307 84 91 25.316 $w=3.03e-07 $l=6.7e-07 $layer=LI1_cond $X=1.015 $Y=0.152
+ $X2=0.345 $Y2=0.152
r308 9 166 182 $w=1.7e-07 $l=2.24332e-07 $layer=licon1_NDIFF $count=1 $X=8.71
+ $Y=0.575 $X2=8.85 $Y2=0.74
r309 8 157 182 $w=1.7e-07 $l=2.24332e-07 $layer=licon1_NDIFF $count=1 $X=7.76
+ $Y=0.575 $X2=7.9 $Y2=0.74
r310 7 148 182 $w=1.7e-07 $l=2.18746e-07 $layer=licon1_NDIFF $count=1 $X=6.915
+ $Y=0.575 $X2=7.04 $Y2=0.74
r311 6 139 182 $w=1.7e-07 $l=2.4e-07 $layer=licon1_NDIFF $count=1 $X=5.95
+ $Y=0.575 $X2=6.09 $Y2=0.755
r312 5 127 182 $w=1.7e-07 $l=2.24332e-07 $layer=licon1_NDIFF $count=1 $X=4.2
+ $Y=0.575 $X2=4.34 $Y2=0.74
r313 4 115 182 $w=1.7e-07 $l=2.34307e-07 $layer=licon1_NDIFF $count=1 $X=2.465
+ $Y=0.575 $X2=2.59 $Y2=0.755
r314 3 106 182 $w=1.7e-07 $l=2.24332e-07 $layer=licon1_NDIFF $count=1 $X=1.93
+ $Y=0.575 $X2=2.07 $Y2=0.74
r315 2 97 182 $w=1.7e-07 $l=2.18746e-07 $layer=licon1_NDIFF $count=1 $X=1.085
+ $Y=0.575 $X2=1.21 $Y2=0.74
r316 1 88 182 $w=1.7e-07 $l=2.34307e-07 $layer=licon1_NDIFF $count=1 $X=0.135
+ $Y=0.575 $X2=0.26 $Y2=0.755
.ends

.subckt PM_SKY130_OSU_SC_12T_MS__DFFNR_L%VDD 1 2 3 4 5 6 7 64 68 70 78 86 88 96
+ 98 106 108 116 118 124 136 141 145
r129 141 145 1.32857 $w=1.7e-07 $l=1.19e-06 $layer=mcon $count=7 $X=9.175
+ $Y=4.25 $X2=9.175 $Y2=4.25
r130 136 141 4.11698 $w=3.05e-07 $l=8.84e-06 $layer=MET1_cond $X=0.335 $Y=4.287
+ $X2=9.175 $Y2=4.287
r131 136 139 1.32857 $w=1.7e-07 $l=1.19e-06 $layer=mcon $count=7 $X=0.335
+ $Y=4.25 $X2=0.335 $Y2=4.25
r132 133 145 9.0684 $w=3.03e-07 $l=2.4e-07 $layer=LI1_cond $X=8.935 $Y=4.287
+ $X2=9.175 $Y2=4.287
r133 133 134 3.10218 $w=3.05e-07 $l=8.5e-08 $layer=LI1_cond $X=8.935 $Y=4.287
+ $X2=8.85 $Y2=4.287
r134 122 134 3.51065 $w=1.7e-07 $l=1.52e-07 $layer=LI1_cond $X=8.85 $Y=4.135
+ $X2=8.85 $Y2=4.287
r135 122 124 56.7594 $w=1.68e-07 $l=8.7e-07 $layer=LI1_cond $X=8.85 $Y=4.135
+ $X2=8.85 $Y2=3.265
r136 119 132 3.10218 $w=3.05e-07 $l=8.5e-08 $layer=LI1_cond $X=7.915 $Y=4.287
+ $X2=7.83 $Y2=4.287
r137 119 121 21.9153 $w=3.03e-07 $l=5.8e-07 $layer=LI1_cond $X=7.915 $Y=4.287
+ $X2=8.495 $Y2=4.287
r138 118 134 3.10218 $w=3.05e-07 $l=8.5e-08 $layer=LI1_cond $X=8.765 $Y=4.287
+ $X2=8.85 $Y2=4.287
r139 118 121 10.202 $w=3.03e-07 $l=2.7e-07 $layer=LI1_cond $X=8.765 $Y=4.287
+ $X2=8.495 $Y2=4.287
r140 114 132 3.51065 $w=1.7e-07 $l=1.52e-07 $layer=LI1_cond $X=7.83 $Y=4.135
+ $X2=7.83 $Y2=4.287
r141 114 116 56.107 $w=1.68e-07 $l=8.6e-07 $layer=LI1_cond $X=7.83 $Y=4.135
+ $X2=7.83 $Y2=3.275
r142 111 113 25.6938 $w=3.03e-07 $l=6.8e-07 $layer=LI1_cond $X=6.455 $Y=4.287
+ $X2=7.135 $Y2=4.287
r143 109 130 3.10218 $w=3.05e-07 $l=8.5e-08 $layer=LI1_cond $X=6.175 $Y=4.287
+ $X2=6.09 $Y2=4.287
r144 109 111 10.5798 $w=3.03e-07 $l=2.8e-07 $layer=LI1_cond $X=6.175 $Y=4.287
+ $X2=6.455 $Y2=4.287
r145 108 132 3.10218 $w=3.05e-07 $l=8.5e-08 $layer=LI1_cond $X=7.745 $Y=4.287
+ $X2=7.83 $Y2=4.287
r146 108 113 23.0489 $w=3.03e-07 $l=6.1e-07 $layer=LI1_cond $X=7.745 $Y=4.287
+ $X2=7.135 $Y2=4.287
r147 104 130 3.51065 $w=1.7e-07 $l=1.52e-07 $layer=LI1_cond $X=6.09 $Y=4.135
+ $X2=6.09 $Y2=4.287
r148 104 106 60.3476 $w=1.68e-07 $l=9.25e-07 $layer=LI1_cond $X=6.09 $Y=4.135
+ $X2=6.09 $Y2=3.21
r149 101 103 25.6938 $w=3.03e-07 $l=6.8e-07 $layer=LI1_cond $X=5.095 $Y=4.287
+ $X2=5.775 $Y2=4.287
r150 99 129 3.10218 $w=3.05e-07 $l=8.5e-08 $layer=LI1_cond $X=4.425 $Y=4.287
+ $X2=4.34 $Y2=4.287
r151 99 101 25.316 $w=3.03e-07 $l=6.7e-07 $layer=LI1_cond $X=4.425 $Y=4.287
+ $X2=5.095 $Y2=4.287
r152 98 130 3.10218 $w=3.05e-07 $l=8.5e-08 $layer=LI1_cond $X=6.005 $Y=4.287
+ $X2=6.09 $Y2=4.287
r153 98 103 8.69055 $w=3.03e-07 $l=2.3e-07 $layer=LI1_cond $X=6.005 $Y=4.287
+ $X2=5.775 $Y2=4.287
r154 94 129 3.51065 $w=1.7e-07 $l=1.52e-07 $layer=LI1_cond $X=4.34 $Y=4.135
+ $X2=4.34 $Y2=4.287
r155 94 96 54.8021 $w=1.68e-07 $l=8.4e-07 $layer=LI1_cond $X=4.34 $Y=4.135
+ $X2=4.34 $Y2=3.295
r156 91 93 25.6938 $w=3.03e-07 $l=6.8e-07 $layer=LI1_cond $X=3.055 $Y=4.287
+ $X2=3.735 $Y2=4.287
r157 89 127 3.10218 $w=3.05e-07 $l=8.5e-08 $layer=LI1_cond $X=2.675 $Y=4.287
+ $X2=2.59 $Y2=4.287
r158 89 91 14.3583 $w=3.03e-07 $l=3.8e-07 $layer=LI1_cond $X=2.675 $Y=4.287
+ $X2=3.055 $Y2=4.287
r159 88 129 3.10218 $w=3.05e-07 $l=8.5e-08 $layer=LI1_cond $X=4.255 $Y=4.287
+ $X2=4.34 $Y2=4.287
r160 88 93 19.6482 $w=3.03e-07 $l=5.2e-07 $layer=LI1_cond $X=4.255 $Y=4.287
+ $X2=3.735 $Y2=4.287
r161 84 127 3.51065 $w=1.7e-07 $l=1.52e-07 $layer=LI1_cond $X=2.59 $Y=4.135
+ $X2=2.59 $Y2=4.287
r162 84 86 54.8021 $w=1.68e-07 $l=8.4e-07 $layer=LI1_cond $X=2.59 $Y=4.135
+ $X2=2.59 $Y2=3.295
r163 81 126 3.10218 $w=3.05e-07 $l=8.5e-08 $layer=LI1_cond $X=2.085 $Y=4.287
+ $X2=2 $Y2=4.287
r164 81 83 10.9577 $w=3.03e-07 $l=2.9e-07 $layer=LI1_cond $X=2.085 $Y=4.287
+ $X2=2.375 $Y2=4.287
r165 80 127 3.10218 $w=3.05e-07 $l=8.5e-08 $layer=LI1_cond $X=2.505 $Y=4.287
+ $X2=2.59 $Y2=4.287
r166 80 83 4.91205 $w=3.03e-07 $l=1.3e-07 $layer=LI1_cond $X=2.505 $Y=4.287
+ $X2=2.375 $Y2=4.287
r167 76 126 3.51065 $w=1.7e-07 $l=1.52e-07 $layer=LI1_cond $X=2 $Y=4.135 $X2=2
+ $Y2=4.287
r168 76 78 56.107 $w=1.68e-07 $l=8.6e-07 $layer=LI1_cond $X=2 $Y=4.135 $X2=2
+ $Y2=3.275
r169 73 75 25.6938 $w=3.03e-07 $l=6.8e-07 $layer=LI1_cond $X=1.015 $Y=4.287
+ $X2=1.695 $Y2=4.287
r170 71 139 3.16604 $w=3.05e-07 $l=1.73e-07 $layer=LI1_cond $X=0.345 $Y=4.287
+ $X2=0.172 $Y2=4.287
r171 71 73 25.316 $w=3.03e-07 $l=6.7e-07 $layer=LI1_cond $X=0.345 $Y=4.287
+ $X2=1.015 $Y2=4.287
r172 70 126 3.10218 $w=3.05e-07 $l=8.5e-08 $layer=LI1_cond $X=1.915 $Y=4.287
+ $X2=2 $Y2=4.287
r173 70 75 8.3127 $w=3.03e-07 $l=2.2e-07 $layer=LI1_cond $X=1.915 $Y=4.287
+ $X2=1.695 $Y2=4.287
r174 66 139 4.3922 $w=1.7e-07 $l=1.90997e-07 $layer=LI1_cond $X=0.26 $Y=4.135
+ $X2=0.172 $Y2=4.287
r175 66 68 32.6203 $w=1.68e-07 $l=5e-07 $layer=LI1_cond $X=0.26 $Y=4.135
+ $X2=0.26 $Y2=3.635
r176 64 139 182 $w=1.7e-07 $l=2.43824e-07 $layer=licon1_NTAP_notbjt $count=1
+ $X=0.13 $Y=4.135 $X2=0.335 $Y2=4.22
r177 64 145 182 $w=1.7e-07 $l=2.43824e-07 $layer=licon1_NTAP_notbjt $count=1
+ $X=8.97 $Y=4.135 $X2=9.175 $Y2=4.22
r178 64 132 182 $w=1.7e-07 $l=2.43824e-07 $layer=licon1_NTAP_notbjt $count=1
+ $X=7.61 $Y=4.135 $X2=7.815 $Y2=4.22
r179 64 129 182 $w=1.7e-07 $l=2.43824e-07 $layer=licon1_NTAP_notbjt $count=1
+ $X=4.21 $Y=4.135 $X2=4.415 $Y2=4.22
r180 64 121 182 $w=1.7e-07 $l=2.43824e-07 $layer=licon1_NTAP_notbjt $count=1
+ $X=8.29 $Y=4.135 $X2=8.495 $Y2=4.22
r181 64 113 182 $w=1.7e-07 $l=2.43824e-07 $layer=licon1_NTAP_notbjt $count=1
+ $X=6.93 $Y=4.135 $X2=7.135 $Y2=4.22
r182 64 111 182 $w=1.7e-07 $l=2.43824e-07 $layer=licon1_NTAP_notbjt $count=1
+ $X=6.25 $Y=4.135 $X2=6.455 $Y2=4.22
r183 64 103 182 $w=1.7e-07 $l=2.43824e-07 $layer=licon1_NTAP_notbjt $count=1
+ $X=5.57 $Y=4.135 $X2=5.775 $Y2=4.22
r184 64 101 182 $w=1.7e-07 $l=2.43824e-07 $layer=licon1_NTAP_notbjt $count=1
+ $X=4.89 $Y=4.135 $X2=5.095 $Y2=4.22
r185 64 93 182 $w=1.7e-07 $l=2.43824e-07 $layer=licon1_NTAP_notbjt $count=1
+ $X=3.53 $Y=4.135 $X2=3.735 $Y2=4.22
r186 64 91 182 $w=1.7e-07 $l=2.43824e-07 $layer=licon1_NTAP_notbjt $count=1
+ $X=2.85 $Y=4.135 $X2=3.055 $Y2=4.22
r187 64 83 182 $w=1.7e-07 $l=2.43824e-07 $layer=licon1_NTAP_notbjt $count=1
+ $X=2.17 $Y=4.135 $X2=2.375 $Y2=4.22
r188 64 75 182 $w=1.7e-07 $l=2.43824e-07 $layer=licon1_NTAP_notbjt $count=1
+ $X=1.49 $Y=4.135 $X2=1.695 $Y2=4.22
r189 64 73 182 $w=1.7e-07 $l=2.43824e-07 $layer=licon1_NTAP_notbjt $count=1
+ $X=0.81 $Y=4.135 $X2=1.015 $Y2=4.22
r190 7 124 300 $w=1.7e-07 $l=3.01993e-07 $layer=licon1_PDIFF $count=2 $X=8.71
+ $Y=3.025 $X2=8.85 $Y2=3.265
r191 6 116 300 $w=1.7e-07 $l=3.1225e-07 $layer=licon1_PDIFF $count=2 $X=7.69
+ $Y=3.025 $X2=7.83 $Y2=3.275
r192 5 106 300 $w=1.7e-07 $l=6.71361e-07 $layer=licon1_PDIFF $count=2 $X=5.95
+ $Y=2.605 $X2=6.09 $Y2=3.21
r193 4 96 300 $w=1.7e-07 $l=7.56769e-07 $layer=licon1_PDIFF $count=2 $X=4.2
+ $Y=2.605 $X2=4.34 $Y2=3.295
r194 3 86 300 $w=1.7e-07 $l=7.499e-07 $layer=licon1_PDIFF $count=2 $X=2.465
+ $Y=2.605 $X2=2.59 $Y2=3.295
r195 2 78 300 $w=1.7e-07 $l=3.1225e-07 $layer=licon1_PDIFF $count=2 $X=1.86
+ $Y=3.025 $X2=2 $Y2=3.275
r196 1 68 600 $w=1.7e-07 $l=1.09071e-06 $layer=licon1_PDIFF $count=1 $X=0.135
+ $Y=2.605 $X2=0.26 $Y2=3.635
.ends

.subckt PM_SKY130_OSU_SC_12T_MS__DFFNR_L%RN 3 5 7 9 16 17
c38 17 0 7.50258e-20 $X=0.325 $Y=2.85
r39 16 17 9.3 $w=1.7e-07 $l=1.7e-07 $layer=mcon $count=1 $X=0.32 $Y=2.85
+ $X2=0.32 $Y2=2.85
r40 12 13 145.28 $w=1.7e-07 $l=1.7e-07 $layer=licon1_POLY $count=1 $X=0.53
+ $Y=1.825 $X2=0.53 $Y2=1.825
r41 10 16 56.107 $w=1.68e-07 $l=8.6e-07 $layer=LI1_cond $X=0.32 $Y=1.99 $X2=0.32
+ $Y2=2.85
r42 9 12 8.98947 $w=2.85e-07 $l=2.1e-07 $layer=LI1_cond $X=0.32 $Y=1.825
+ $X2=0.53 $Y2=1.825
r43 9 10 3.76007 $w=1.7e-07 $l=1.65e-07 $layer=LI1_cond $X=0.32 $Y=1.825
+ $X2=0.32 $Y2=1.99
r44 5 13 38.945 $w=2.68e-07 $l=1.90526e-07 $layer=POLY_cond $X=0.475 $Y=1.99
+ $X2=0.53 $Y2=1.825
r45 5 7 638.394 $w=1.5e-07 $l=1.245e-06 $layer=POLY_cond $X=0.475 $Y=1.99
+ $X2=0.475 $Y2=3.235
r46 1 13 39.8442 $w=2.68e-07 $l=1.95576e-07 $layer=POLY_cond $X=0.475 $Y=1.655
+ $X2=0.53 $Y2=1.825
r47 1 3 420.468 $w=1.5e-07 $l=8.2e-07 $layer=POLY_cond $X=0.475 $Y=1.655
+ $X2=0.475 $Y2=0.835
.ends

.subckt PM_SKY130_OSU_SC_12T_MS__DFFNR_L%A_110_115# 1 2 7 9 12 14 16 18 20 23 27
+ 32 33 34 39 42 43 44 46 48 52 57 59 63
c198 52 0 5.73867e-20 $X=7.89 $Y=1.37
c199 48 0 5.44281e-20 $X=1.22 $Y=1.37
c200 39 0 7.50258e-20 $X=0.87 $Y=2.26
c201 14 0 1.71863e-19 $X=7.615 $Y=1.52
r202 62 63 145.28 $w=1.7e-07 $l=1.7e-07 $layer=licon1_POLY $count=1 $X=7.89
+ $Y=1.21 $X2=7.89 $Y2=1.21
r203 56 59 35.8466 $w=3.3e-07 $l=2.05e-07 $layer=POLY_cond $X=1.22 $Y=1.21
+ $X2=1.425 $Y2=1.21
r204 56 57 145.28 $w=1.7e-07 $l=1.7e-07 $layer=licon1_POLY $count=1 $X=1.22
+ $Y=1.21 $X2=1.22 $Y2=1.21
r205 52 63 9.3 $w=1.7e-07 $l=1.7e-07 $layer=mcon $count=1 $X=7.89 $Y=1.37
+ $X2=7.89 $Y2=1.37
r206 48 57 9.3 $w=1.7e-07 $l=1.7e-07 $layer=mcon $count=1 $X=1.22 $Y=1.37
+ $X2=1.22 $Y2=1.37
r207 46 52 0.0804477 $w=2.9e-07 $l=1.15e-07 $layer=MET1_cond $X=7.89 $Y=1.255
+ $X2=7.89 $Y2=1.37
r208 45 46 0.16369 $w=1.7e-07 $l=1.7e-07 $layer=MET1_cond $X=7.89 $Y=1.085
+ $X2=7.89 $Y2=1.255
r209 43 45 0.0698411 $w=1.7e-07 $l=1.20208e-07 $layer=MET1_cond $X=7.805 $Y=1
+ $X2=7.89 $Y2=1.085
r210 43 44 6.25874 $w=1.7e-07 $l=6.5e-06 $layer=MET1_cond $X=7.805 $Y=1
+ $X2=1.305 $Y2=1
r211 42 48 0.0829981 $w=2.7e-07 $l=1.15e-07 $layer=MET1_cond $X=1.22 $Y=1.255
+ $X2=1.22 $Y2=1.37
r212 41 44 0.0698411 $w=1.7e-07 $l=1.20208e-07 $layer=MET1_cond $X=1.22 $Y=1.085
+ $X2=1.305 $Y2=1
r213 41 42 0.16369 $w=1.7e-07 $l=1.7e-07 $layer=MET1_cond $X=1.22 $Y=1.085
+ $X2=1.22 $Y2=1.255
r214 37 39 11.7433 $w=1.68e-07 $l=1.8e-07 $layer=LI1_cond $X=0.69 $Y=2.26
+ $X2=0.87 $Y2=2.26
r215 35 36 10.0734 $w=2.18e-07 $l=1.8e-07 $layer=LI1_cond $X=0.69 $Y=1.16
+ $X2=0.87 $Y2=1.16
r216 34 36 5.3812 $w=2.18e-07 $l=1.07121e-07 $layer=LI1_cond $X=0.955 $Y=1.21
+ $X2=0.87 $Y2=1.16
r217 33 57 2.00497 $w=1.7e-07 $l=1.25e-07 $layer=LI1_cond $X=1.135 $Y=1.21
+ $X2=1.26 $Y2=1.21
r218 33 34 11.7433 $w=1.68e-07 $l=1.8e-07 $layer=LI1_cond $X=1.135 $Y=1.21
+ $X2=0.955 $Y2=1.21
r219 32 39 0.716491 $w=1.7e-07 $l=8.5e-08 $layer=LI1_cond $X=0.87 $Y=2.175
+ $X2=0.87 $Y2=2.26
r220 31 36 2.19618 $w=1.7e-07 $l=1.35e-07 $layer=LI1_cond $X=0.87 $Y=1.295
+ $X2=0.87 $Y2=1.16
r221 31 32 57.4118 $w=1.68e-07 $l=8.8e-07 $layer=LI1_cond $X=0.87 $Y=1.295
+ $X2=0.87 $Y2=2.175
r222 27 29 44.3636 $w=1.68e-07 $l=6.8e-07 $layer=LI1_cond $X=0.69 $Y=2.95
+ $X2=0.69 $Y2=3.63
r223 25 37 0.716491 $w=1.7e-07 $l=8.5e-08 $layer=LI1_cond $X=0.69 $Y=2.345
+ $X2=0.69 $Y2=2.26
r224 25 27 39.4706 $w=1.68e-07 $l=6.05e-07 $layer=LI1_cond $X=0.69 $Y=2.345
+ $X2=0.69 $Y2=2.95
r225 21 35 2.19618 $w=1.7e-07 $l=1.35e-07 $layer=LI1_cond $X=0.69 $Y=1.025
+ $X2=0.69 $Y2=1.16
r226 21 23 17.615 $w=1.68e-07 $l=2.7e-07 $layer=LI1_cond $X=0.69 $Y=1.025
+ $X2=0.69 $Y2=0.755
r227 18 62 38.8445 $w=3.55e-07 $l=2.07918e-07 $layer=POLY_cond $X=7.685 $Y=1.045
+ $X2=7.782 $Y2=1.21
r228 18 20 93.1867 $w=1.5e-07 $l=2.9e-07 $layer=POLY_cond $X=7.685 $Y=1.045
+ $X2=7.685 $Y2=0.755
r229 14 62 58.5319 $w=3.55e-07 $l=3.84539e-07 $layer=POLY_cond $X=7.615 $Y=1.52
+ $X2=7.782 $Y2=1.21
r230 14 16 987.074 $w=1.5e-07 $l=1.925e-06 $layer=POLY_cond $X=7.615 $Y=1.52
+ $X2=7.615 $Y2=3.445
r231 10 59 21.2229 $w=1.5e-07 $l=1.65e-07 $layer=POLY_cond $X=1.425 $Y=1.375
+ $X2=1.425 $Y2=1.21
r232 10 12 1061.43 $w=1.5e-07 $l=2.07e-06 $layer=POLY_cond $X=1.425 $Y=1.375
+ $X2=1.425 $Y2=3.445
r233 7 59 21.2229 $w=1.5e-07 $l=1.65e-07 $layer=POLY_cond $X=1.425 $Y=1.045
+ $X2=1.425 $Y2=1.21
r234 7 9 93.1867 $w=1.5e-07 $l=2.9e-07 $layer=POLY_cond $X=1.425 $Y=1.045
+ $X2=1.425 $Y2=0.755
r235 2 29 400 $w=1.7e-07 $l=1.09276e-06 $layer=licon1_PDIFF $count=1 $X=0.55
+ $Y=2.605 $X2=0.69 $Y2=3.63
r236 2 27 400 $w=1.7e-07 $l=4.09054e-07 $layer=licon1_PDIFF $count=1 $X=0.55
+ $Y=2.605 $X2=0.69 $Y2=2.95
r237 1 23 182 $w=1.7e-07 $l=2.4e-07 $layer=licon1_NDIFF $count=1 $X=0.55
+ $Y=0.575 $X2=0.69 $Y2=0.755
.ends

.subckt PM_SKY130_OSU_SC_12T_MS__DFFNR_L%A_342_442# 1 2 9 13 16 17 19 20 22 25
+ 30 31 33
c83 33 0 1.72079e-19 $X=3.365 $Y=0.755
c84 19 0 1.29912e-19 $X=3.28 $Y=1.285
r85 33 35 3.47578 $w=3.51e-07 $l=1e-07 $layer=LI1_cond $X=3.365 $Y=0.755
+ $X2=3.465 $Y2=0.755
r86 31 38 46.6671 $w=3.65e-07 $l=1.65e-07 $layer=POLY_cond $X=1.892 $Y=2.375
+ $X2=1.892 $Y2=2.54
r87 31 37 46.6671 $w=3.65e-07 $l=1.65e-07 $layer=POLY_cond $X=1.892 $Y=2.375
+ $X2=1.892 $Y2=2.21
r88 30 32 15.1353 $w=2.66e-07 $l=3.3e-07 $layer=LI1_cond $X=2.025 $Y=2.375
+ $X2=2.025 $Y2=2.705
r89 30 31 145.28 $w=1.7e-07 $l=1.7e-07 $layer=licon1_POLY $count=1 $X=1.94
+ $Y=2.375 $X2=1.94 $Y2=2.375
r90 25 27 23.0489 $w=3.38e-07 $l=6.8e-07 $layer=LI1_cond $X=3.465 $Y=2.955
+ $X2=3.465 $Y2=3.635
r91 23 25 5.59274 $w=3.38e-07 $l=1.65e-07 $layer=LI1_cond $X=3.465 $Y=2.79
+ $X2=3.465 $Y2=2.955
r92 21 33 4.99104 $w=1.7e-07 $l=1.8e-07 $layer=LI1_cond $X=3.365 $Y=0.935
+ $X2=3.365 $Y2=0.755
r93 21 22 17.2888 $w=1.68e-07 $l=2.65e-07 $layer=LI1_cond $X=3.365 $Y=0.935
+ $X2=3.365 $Y2=1.2
r94 19 22 6.81649 $w=1.7e-07 $l=1.20208e-07 $layer=LI1_cond $X=3.28 $Y=1.285
+ $X2=3.365 $Y2=1.2
r95 19 20 70.4599 $w=1.68e-07 $l=1.08e-06 $layer=LI1_cond $X=3.28 $Y=1.285
+ $X2=2.2 $Y2=1.285
r96 18 32 3.35683 $w=1.7e-07 $l=1.7e-07 $layer=LI1_cond $X=2.195 $Y=2.705
+ $X2=2.025 $Y2=2.705
r97 17 23 7.85115 $w=1.7e-07 $l=2.08207e-07 $layer=LI1_cond $X=3.295 $Y=2.705
+ $X2=3.465 $Y2=2.79
r98 17 18 71.7647 $w=1.68e-07 $l=1.1e-06 $layer=LI1_cond $X=3.295 $Y=2.705
+ $X2=2.195 $Y2=2.705
r99 16 30 9.15133 $w=2.66e-07 $l=2.03101e-07 $layer=LI1_cond $X=2.11 $Y=2.21
+ $X2=2.025 $Y2=2.375
r100 15 20 6.81649 $w=1.7e-07 $l=2.25555e-07 $layer=LI1_cond $X=2.11 $Y=1.47
+ $X2=2.2 $Y2=1.285
r101 15 16 48.2781 $w=1.68e-07 $l=7.4e-07 $layer=LI1_cond $X=2.11 $Y=1.47
+ $X2=2.11 $Y2=2.21
r102 13 37 746.074 $w=1.5e-07 $l=1.455e-06 $layer=POLY_cond $X=1.855 $Y=0.755
+ $X2=1.855 $Y2=2.21
r103 9 38 464.053 $w=1.5e-07 $l=9.05e-07 $layer=POLY_cond $X=1.785 $Y=3.445
+ $X2=1.785 $Y2=2.54
r104 2 27 400 $w=1.7e-07 $l=1.13695e-06 $layer=licon1_PDIFF $count=1 $X=3.24
+ $Y=2.605 $X2=3.465 $Y2=3.635
r105 2 25 400 $w=1.7e-07 $l=4.48609e-07 $layer=licon1_PDIFF $count=1 $X=3.24
+ $Y=2.605 $X2=3.465 $Y2=2.955
r106 1 35 182 $w=1.7e-07 $l=3.01869e-07 $layer=licon1_NDIFF $count=1 $X=3.24
+ $Y=0.575 $X2=3.465 $Y2=0.755
.ends

.subckt PM_SKY130_OSU_SC_12T_MS__DFFNR_L%D 3 7 10 13 15
c42 15 0 1.12321e-19 $X=2.865 $Y=1.74
c43 10 0 1.41836e-19 $X=2.865 $Y=1.74
r44 15 18 48.4159 $w=2.7e-07 $l=1.65e-07 $layer=POLY_cond $X=2.865 $Y=1.74
+ $X2=2.865 $Y2=1.905
r45 15 17 48.4159 $w=2.7e-07 $l=1.65e-07 $layer=POLY_cond $X=2.865 $Y=1.74
+ $X2=2.865 $Y2=1.575
r46 13 15 145.28 $w=1.7e-07 $l=1.7e-07 $layer=licon1_POLY $count=1 $X=2.865
+ $Y=1.74 $X2=2.865 $Y2=1.74
r47 10 13 9.3 $w=1.7e-07 $l=1.7e-07 $layer=mcon $count=1 $X=2.865 $Y=1.74
+ $X2=2.865 $Y2=1.74
r48 7 18 681.979 $w=1.5e-07 $l=1.33e-06 $layer=POLY_cond $X=2.805 $Y=3.235
+ $X2=2.805 $Y2=1.905
r49 3 17 379.447 $w=1.5e-07 $l=7.4e-07 $layer=POLY_cond $X=2.805 $Y=0.835
+ $X2=2.805 $Y2=1.575
.ends

.subckt PM_SKY130_OSU_SC_12T_MS__DFFNR_L%A_618_424# 1 2 9 13 16 19 21 25 26 30
+ 31 33 34 37 42 43 44 48 52 56 57 58 59 62 66 68 69 72 77 80 83
c258 83 0 4.72879e-20 $X=5.455 $Y=2.285
c259 77 0 1.29912e-19 $X=3.705 $Y=1.205
c260 72 0 1.41836e-19 $X=3.225 $Y=2.285
c261 68 0 1.59924e-19 $X=6.87 $Y=2.11
c262 56 0 1.89675e-19 $X=5.31 $Y=2.11
c263 34 0 6.79641e-20 $X=5.06 $Y=2.11
c264 33 0 1.70195e-19 $X=5.37 $Y=2.11
c265 25 0 1.98654e-19 $X=3.705 $Y=1.37
c266 21 0 1.86602e-19 $X=3.62 $Y=2.11
r267 83 86 48.4159 $w=2.7e-07 $l=1.65e-07 $layer=POLY_cond $X=5.455 $Y=2.285
+ $X2=5.455 $Y2=2.45
r268 83 84 145.28 $w=1.7e-07 $l=1.7e-07 $layer=licon1_POLY $count=1 $X=5.455
+ $Y=2.285 $X2=5.455 $Y2=2.285
r269 72 75 48.4159 $w=2.7e-07 $l=1.65e-07 $layer=POLY_cond $X=3.225 $Y=2.285
+ $X2=3.225 $Y2=2.45
r270 72 73 145.28 $w=1.7e-07 $l=1.7e-07 $layer=licon1_POLY $count=1 $X=3.225
+ $Y=2.285 $X2=3.225 $Y2=2.285
r271 68 69 9.3 $w=1.7e-07 $l=1.7e-07 $layer=mcon $count=1 $X=6.87 $Y=2.11
+ $X2=6.87 $Y2=2.11
r272 66 84 11.4171 $w=1.68e-07 $l=1.75e-07 $layer=LI1_cond $X=5.455 $Y=2.11
+ $X2=5.455 $Y2=2.285
r273 65 66 9.3 $w=1.7e-07 $l=1.7e-07 $layer=mcon $count=1 $X=5.455 $Y=2.11
+ $X2=5.455 $Y2=2.11
r274 62 73 11.4171 $w=1.68e-07 $l=1.75e-07 $layer=LI1_cond $X=3.225 $Y=2.11
+ $X2=3.225 $Y2=2.285
r275 61 62 9.3 $w=1.7e-07 $l=1.7e-07 $layer=mcon $count=1 $X=3.225 $Y=2.11
+ $X2=3.225 $Y2=2.11
r276 59 65 0.103375 $w=2.3e-07 $l=1.45e-07 $layer=MET1_cond $X=5.6 $Y=2.11
+ $X2=5.455 $Y2=2.11
r277 58 68 0.103375 $w=2.3e-07 $l=1.45e-07 $layer=MET1_cond $X=6.725 $Y=2.11
+ $X2=6.87 $Y2=2.11
r278 58 59 1.08324 $w=1.7e-07 $l=1.125e-06 $layer=MET1_cond $X=6.725 $Y=2.11
+ $X2=5.6 $Y2=2.11
r279 57 61 0.103375 $w=2.3e-07 $l=1.45e-07 $layer=MET1_cond $X=3.37 $Y=2.11
+ $X2=3.225 $Y2=2.11
r280 56 65 0.103375 $w=2.3e-07 $l=1.45e-07 $layer=MET1_cond $X=5.31 $Y=2.11
+ $X2=5.455 $Y2=2.11
r281 56 57 1.86799 $w=1.7e-07 $l=1.94e-06 $layer=MET1_cond $X=5.31 $Y=2.11
+ $X2=3.37 $Y2=2.11
r282 55 69 33.2727 $w=1.68e-07 $l=5.1e-07 $layer=LI1_cond $X=6.87 $Y=2.62
+ $X2=6.87 $Y2=2.11
r283 53 69 11.7433 $w=1.68e-07 $l=1.8e-07 $layer=LI1_cond $X=6.87 $Y=1.93
+ $X2=6.87 $Y2=2.11
r284 52 53 0.716491 $w=1.7e-07 $l=8.5e-08 $layer=LI1_cond $X=6.87 $Y=1.845
+ $X2=6.87 $Y2=1.93
r285 50 52 11.7433 $w=1.68e-07 $l=1.8e-07 $layer=LI1_cond $X=6.69 $Y=1.845
+ $X2=6.87 $Y2=1.845
r286 46 48 9.42727 $w=1.98e-07 $l=1.7e-07 $layer=LI1_cond $X=6.52 $Y=0.755
+ $X2=6.69 $Y2=0.755
r287 43 55 6.81649 $w=1.7e-07 $l=1.20208e-07 $layer=LI1_cond $X=6.785 $Y=2.705
+ $X2=6.87 $Y2=2.62
r288 43 44 11.7433 $w=1.68e-07 $l=1.8e-07 $layer=LI1_cond $X=6.785 $Y=2.705
+ $X2=6.605 $Y2=2.705
r289 42 50 0.716491 $w=1.7e-07 $l=8.5e-08 $layer=LI1_cond $X=6.69 $Y=1.76
+ $X2=6.69 $Y2=1.845
r290 41 48 1.68994 $w=1.7e-07 $l=1e-07 $layer=LI1_cond $X=6.69 $Y=0.855 $X2=6.69
+ $Y2=0.755
r291 41 42 59.0428 $w=1.68e-07 $l=9.05e-07 $layer=LI1_cond $X=6.69 $Y=0.855
+ $X2=6.69 $Y2=1.76
r292 37 39 44.3636 $w=1.68e-07 $l=6.8e-07 $layer=LI1_cond $X=6.52 $Y=2.955
+ $X2=6.52 $Y2=3.635
r293 35 44 6.81649 $w=1.7e-07 $l=1.20208e-07 $layer=LI1_cond $X=6.52 $Y=2.79
+ $X2=6.605 $Y2=2.705
r294 35 37 10.7647 $w=1.68e-07 $l=1.65e-07 $layer=LI1_cond $X=6.52 $Y=2.79
+ $X2=6.52 $Y2=2.955
r295 33 66 0.716491 $w=1.7e-07 $l=8.5e-08 $layer=LI1_cond $X=5.37 $Y=2.11
+ $X2=5.455 $Y2=2.11
r296 33 34 20.2246 $w=1.68e-07 $l=3.1e-07 $layer=LI1_cond $X=5.37 $Y=2.11
+ $X2=5.06 $Y2=2.11
r297 31 80 48.4159 $w=2.7e-07 $l=1.65e-07 $layer=POLY_cond $X=4.975 $Y=1.37
+ $X2=4.975 $Y2=1.205
r298 30 31 145.28 $w=1.7e-07 $l=1.7e-07 $layer=licon1_POLY $count=1 $X=4.975
+ $Y=1.37 $X2=4.975 $Y2=1.37
r299 28 34 6.81649 $w=1.7e-07 $l=1.20208e-07 $layer=LI1_cond $X=4.975 $Y=2.025
+ $X2=5.06 $Y2=2.11
r300 28 30 42.7326 $w=1.68e-07 $l=6.55e-07 $layer=LI1_cond $X=4.975 $Y=2.025
+ $X2=4.975 $Y2=1.37
r301 26 77 48.4159 $w=2.7e-07 $l=1.65e-07 $layer=POLY_cond $X=3.705 $Y=1.37
+ $X2=3.705 $Y2=1.205
r302 25 26 145.28 $w=1.7e-07 $l=1.7e-07 $layer=licon1_POLY $count=1 $X=3.705
+ $Y=1.37 $X2=3.705 $Y2=1.37
r303 23 25 42.7326 $w=1.68e-07 $l=6.55e-07 $layer=LI1_cond $X=3.705 $Y=2.025
+ $X2=3.705 $Y2=1.37
r304 22 62 0.716491 $w=1.7e-07 $l=8.5e-08 $layer=LI1_cond $X=3.31 $Y=2.11
+ $X2=3.225 $Y2=2.11
r305 21 23 6.81649 $w=1.7e-07 $l=1.20208e-07 $layer=LI1_cond $X=3.62 $Y=2.11
+ $X2=3.705 $Y2=2.025
r306 21 22 20.2246 $w=1.68e-07 $l=3.1e-07 $layer=LI1_cond $X=3.62 $Y=2.11
+ $X2=3.31 $Y2=2.11
r307 19 86 402.521 $w=1.5e-07 $l=7.85e-07 $layer=POLY_cond $X=5.515 $Y=3.235
+ $X2=5.515 $Y2=2.45
r308 16 80 118.893 $w=1.5e-07 $l=3.7e-07 $layer=POLY_cond $X=4.915 $Y=0.835
+ $X2=4.915 $Y2=1.205
r309 13 77 118.893 $w=1.5e-07 $l=3.7e-07 $layer=POLY_cond $X=3.765 $Y=0.835
+ $X2=3.765 $Y2=1.205
r310 9 75 402.521 $w=1.5e-07 $l=7.85e-07 $layer=POLY_cond $X=3.165 $Y=3.235
+ $X2=3.165 $Y2=2.45
r311 2 39 400 $w=1.7e-07 $l=1.09777e-06 $layer=licon1_PDIFF $count=1 $X=6.38
+ $Y=2.605 $X2=6.52 $Y2=3.635
r312 2 37 400 $w=1.7e-07 $l=4.14126e-07 $layer=licon1_PDIFF $count=1 $X=6.38
+ $Y=2.605 $X2=6.52 $Y2=2.955
r313 1 46 182 $w=1.7e-07 $l=2.4e-07 $layer=licon1_NDIFF $count=1 $X=6.38
+ $Y=0.575 $X2=6.52 $Y2=0.755
.ends

.subckt PM_SKY130_OSU_SC_12T_MS__DFFNR_L%A_217_605# 1 2 9 13 17 21 23 24 25 26
+ 29 31 32 35 39 45 47 48 55
c138 39 0 1.35571e-19 $X=4.06 $Y=1.37
c139 35 0 1.5821e-19 $X=4.295 $Y=2.285
c140 26 0 6.79641e-20 $X=4.48 $Y=2.285
c141 24 0 1.86602e-19 $X=4.2 $Y=2.285
c142 21 0 6.36774e-20 $X=4.555 $Y=3.235
c143 13 0 6.36774e-20 $X=4.125 $Y=3.235
r144 48 51 145.28 $w=1.7e-07 $l=1.7e-07 $layer=licon1_POLY $count=1 $X=4.295
+ $Y=1.37 $X2=4.295 $Y2=1.37
r145 47 48 9.3 $w=1.7e-07 $l=1.7e-07 $layer=mcon $count=1 $X=4.205 $Y=1.37
+ $X2=4.205 $Y2=1.37
r146 43 55 41.1016 $w=1.68e-07 $l=6.3e-07 $layer=LI1_cond $X=1.64 $Y=1.37
+ $X2=1.64 $Y2=0.74
r147 42 45 0.0982977 $w=2.45e-07 $l=1.4e-07 $layer=MET1_cond $X=1.64 $Y=1.372
+ $X2=1.78 $Y2=1.372
r148 42 43 9.3 $w=1.7e-07 $l=1.7e-07 $layer=mcon $count=1 $X=1.64 $Y=1.37
+ $X2=1.64 $Y2=1.37
r149 39 47 0.103375 $w=2.3e-07 $l=1.45e-07 $layer=MET1_cond $X=4.06 $Y=1.37
+ $X2=4.205 $Y2=1.37
r150 39 45 2.19537 $w=1.7e-07 $l=2.28e-06 $layer=MET1_cond $X=4.06 $Y=1.37
+ $X2=1.78 $Y2=1.37
r151 38 43 23.1604 $w=1.68e-07 $l=3.55e-07 $layer=LI1_cond $X=1.64 $Y=1.725
+ $X2=1.64 $Y2=1.37
r152 35 36 145.28 $w=1.7e-07 $l=1.7e-07 $layer=licon1_POLY $count=1 $X=4.295
+ $Y=2.285 $X2=4.295 $Y2=2.285
r153 33 48 2.3025 $w=1.7e-07 $l=1.63936e-07 $layer=LI1_cond $X=4.295 $Y=1.455
+ $X2=4.205 $Y2=1.33
r154 33 35 54.1497 $w=1.68e-07 $l=8.3e-07 $layer=LI1_cond $X=4.295 $Y=1.455
+ $X2=4.295 $Y2=2.285
r155 31 38 6.81649 $w=1.7e-07 $l=1.20208e-07 $layer=LI1_cond $X=1.555 $Y=1.81
+ $X2=1.64 $Y2=1.725
r156 31 32 16.9626 $w=1.68e-07 $l=2.6e-07 $layer=LI1_cond $X=1.555 $Y=1.81
+ $X2=1.295 $Y2=1.81
r157 27 32 6.81649 $w=1.7e-07 $l=1.20208e-07 $layer=LI1_cond $X=1.21 $Y=1.895
+ $X2=1.295 $Y2=1.81
r158 27 29 90.0321 $w=1.68e-07 $l=1.38e-06 $layer=LI1_cond $X=1.21 $Y=1.895
+ $X2=1.21 $Y2=3.275
r159 26 36 41.1021 $w=2.7e-07 $l=1.85e-07 $layer=POLY_cond $X=4.48 $Y=2.285
+ $X2=4.295 $Y2=2.285
r160 25 51 41.1021 $w=2.7e-07 $l=1.85e-07 $layer=POLY_cond $X=4.48 $Y=1.37
+ $X2=4.295 $Y2=1.37
r161 24 36 21.1065 $w=2.7e-07 $l=9.5e-08 $layer=POLY_cond $X=4.2 $Y=2.285
+ $X2=4.295 $Y2=2.285
r162 23 51 21.1065 $w=2.7e-07 $l=9.5e-08 $layer=POLY_cond $X=4.2 $Y=1.37
+ $X2=4.295 $Y2=1.37
r163 19 26 29.8935 $w=2.7e-07 $l=1.68375e-07 $layer=POLY_cond $X=4.555 $Y=2.42
+ $X2=4.48 $Y2=2.285
r164 19 21 417.904 $w=1.5e-07 $l=8.15e-07 $layer=POLY_cond $X=4.555 $Y=2.42
+ $X2=4.555 $Y2=3.235
r165 15 25 29.8935 $w=2.7e-07 $l=1.68375e-07 $layer=POLY_cond $X=4.555 $Y=1.235
+ $X2=4.48 $Y2=1.37
r166 15 17 205.106 $w=1.5e-07 $l=4e-07 $layer=POLY_cond $X=4.555 $Y=1.235
+ $X2=4.555 $Y2=0.835
r167 11 24 29.8935 $w=2.7e-07 $l=1.68375e-07 $layer=POLY_cond $X=4.125 $Y=2.42
+ $X2=4.2 $Y2=2.285
r168 11 13 417.904 $w=1.5e-07 $l=8.15e-07 $layer=POLY_cond $X=4.125 $Y=2.42
+ $X2=4.125 $Y2=3.235
r169 7 23 29.8935 $w=2.7e-07 $l=1.68375e-07 $layer=POLY_cond $X=4.125 $Y=1.235
+ $X2=4.2 $Y2=1.37
r170 7 9 205.106 $w=1.5e-07 $l=4e-07 $layer=POLY_cond $X=4.125 $Y=1.235
+ $X2=4.125 $Y2=0.835
r171 2 29 300 $w=1.7e-07 $l=3.06186e-07 $layer=licon1_PDIFF $count=2 $X=1.085