* File: sky130_osu_sc_18T_hs__inv_10.pex.spice
* Created: Fri Nov 12 13:50:15 2021
* Program "Calibre xRC"
* Version "v2021.2_28.15"
* Nominal Temperature: 27C
* Circuit Temperature: 27C
* 
.subckt PM_SKY130_OSU_SC_18T_HS__INV_10%GND 1 2 3 4 5 6 67 71 73 80 82 89 91 98
+ 100 107 109 117 132 134
r138 132 134 1.90014 $w=3.05e-07 $l=4.08e-06 $layer=MET1_cond $X=0.34 $Y=0.152
+ $X2=4.42 $Y2=0.152
r139 115 117 33.9251 $w=1.68e-07 $l=5.2e-07 $layer=LI1_cond $X=4.56 $Y=0.305
+ $X2=4.56 $Y2=0.825
r140 109 115 7.55824 $w=3.05e-07 $l=1.90825e-07 $layer=LI1_cond $X=4.475
+ $Y=0.152 $X2=4.56 $Y2=0.305
r141 105 107 33.9251 $w=1.68e-07 $l=5.2e-07 $layer=LI1_cond $X=3.7 $Y=0.305
+ $X2=3.7 $Y2=0.825
r142 101 125 3.10218 $w=3.05e-07 $l=8.5e-08 $layer=LI1_cond $X=2.925 $Y=0.152
+ $X2=2.84 $Y2=0.152
r143 96 125 3.51065 $w=1.7e-07 $l=1.53e-07 $layer=LI1_cond $X=2.84 $Y=0.305
+ $X2=2.84 $Y2=0.152
r144 96 98 33.9251 $w=1.68e-07 $l=5.2e-07 $layer=LI1_cond $X=2.84 $Y=0.305
+ $X2=2.84 $Y2=0.825
r145 92 124 3.10218 $w=3.05e-07 $l=8.5e-08 $layer=LI1_cond $X=2.065 $Y=0.152
+ $X2=1.98 $Y2=0.152
r146 91 125 3.10218 $w=3.05e-07 $l=8.5e-08 $layer=LI1_cond $X=2.755 $Y=0.152
+ $X2=2.84 $Y2=0.152
r147 87 124 3.51065 $w=1.7e-07 $l=1.53e-07 $layer=LI1_cond $X=1.98 $Y=0.305
+ $X2=1.98 $Y2=0.152
r148 87 89 33.9251 $w=1.68e-07 $l=5.2e-07 $layer=LI1_cond $X=1.98 $Y=0.305
+ $X2=1.98 $Y2=0.825
r149 83 123 3.10218 $w=3.05e-07 $l=8.5e-08 $layer=LI1_cond $X=1.205 $Y=0.152
+ $X2=1.12 $Y2=0.152
r150 82 124 3.10218 $w=3.05e-07 $l=8.5e-08 $layer=LI1_cond $X=1.895 $Y=0.152
+ $X2=1.98 $Y2=0.152
r151 78 123 3.51065 $w=1.7e-07 $l=1.53e-07 $layer=LI1_cond $X=1.12 $Y=0.305
+ $X2=1.12 $Y2=0.152
r152 78 80 33.9251 $w=1.68e-07 $l=5.2e-07 $layer=LI1_cond $X=1.12 $Y=0.305
+ $X2=1.12 $Y2=0.825
r153 73 123 3.10218 $w=3.05e-07 $l=8.5e-08 $layer=LI1_cond $X=1.035 $Y=0.152
+ $X2=1.12 $Y2=0.152
r154 69 71 33.9251 $w=1.68e-07 $l=5.2e-07 $layer=LI1_cond $X=0.26 $Y=0.305
+ $X2=0.26 $Y2=0.825
r155 67 134 2.65714 $w=1.7e-07 $l=5.95e-07 $layer=mcon $count=3 $X=4.42 $Y=0.19
+ $X2=4.42 $Y2=0.19
r156 67 132 2.65714 $w=1.7e-07 $l=5.95e-07 $layer=mcon $count=3 $X=0.34 $Y=0.19
+ $X2=0.34 $Y2=0.19
r157 67 105 3.51065 $w=1.7e-07 $l=1.53e-07 $layer=LI1_cond $X=3.7 $Y=0.152
+ $X2=3.7 $Y2=0.305
r158 67 100 3.10218 $w=3.05e-07 $l=8.5e-08 $layer=LI1_cond $X=3.7 $Y=0.152
+ $X2=3.615 $Y2=0.152
r159 67 110 3.10218 $w=3.05e-07 $l=8.5e-08 $layer=LI1_cond $X=3.7 $Y=0.152
+ $X2=3.785 $Y2=0.152
r160 67 69 4.39984 $w=1.7e-07 $l=1.92023e-07 $layer=LI1_cond $X=0.172 $Y=0.152
+ $X2=0.26 $Y2=0.305
r161 67 74 3.15839 $w=3.05e-07 $l=1.73e-07 $layer=LI1_cond $X=0.172 $Y=0.152
+ $X2=0.345 $Y2=0.152
r162 67 109 2.07818 $w=3.03e-07 $l=5.5e-08 $layer=LI1_cond $X=4.42 $Y=0.152
+ $X2=4.475 $Y2=0.152
r163 67 110 23.9935 $w=3.03e-07 $l=6.35e-07 $layer=LI1_cond $X=4.42 $Y=0.152
+ $X2=3.785 $Y2=0.152
r164 67 100 20.9707 $w=3.03e-07 $l=5.55e-07 $layer=LI1_cond $X=3.06 $Y=0.152
+ $X2=3.615 $Y2=0.152
r165 67 101 5.10098 $w=3.03e-07 $l=1.35e-07 $layer=LI1_cond $X=3.06 $Y=0.152
+ $X2=2.925 $Y2=0.152
r166 67 91 14.1694 $w=3.03e-07 $l=3.75e-07 $layer=LI1_cond $X=2.38 $Y=0.152
+ $X2=2.755 $Y2=0.152
r167 67 92 11.9023 $w=3.03e-07 $l=3.15e-07 $layer=LI1_cond $X=2.38 $Y=0.152
+ $X2=2.065 $Y2=0.152
r168 67 82 7.36808 $w=3.03e-07 $l=1.95e-07 $layer=LI1_cond $X=1.7 $Y=0.152
+ $X2=1.895 $Y2=0.152
r169 67 83 18.7036 $w=3.03e-07 $l=4.95e-07 $layer=LI1_cond $X=1.7 $Y=0.152
+ $X2=1.205 $Y2=0.152
r170 67 73 0.566775 $w=3.03e-07 $l=1.5e-08 $layer=LI1_cond $X=1.02 $Y=0.152
+ $X2=1.035 $Y2=0.152
r171 67 74 25.5049 $w=3.03e-07 $l=6.75e-07 $layer=LI1_cond $X=1.02 $Y=0.152
+ $X2=0.345 $Y2=0.152
r172 6 117 91 $w=1.7e-07 $l=3.1225e-07 $layer=licon1_NDIFF $count=2 $X=4.42
+ $Y=0.575 $X2=4.56 $Y2=0.825
r173 5 107 91 $w=1.7e-07 $l=3.1225e-07 $layer=licon1_NDIFF $count=2 $X=3.56
+ $Y=0.575 $X2=3.7 $Y2=0.825
r174 4 98 91 $w=1.7e-07 $l=3.1225e-07 $layer=licon1_NDIFF $count=2 $X=2.7
+ $Y=0.575 $X2=2.84 $Y2=0.825
r175 3 89 91 $w=1.7e-07 $l=3.1225e-07 $layer=licon1_NDIFF $count=2 $X=1.84
+ $Y=0.575 $X2=1.98 $Y2=0.825
r176 2 80 91 $w=1.7e-07 $l=3.1225e-07 $layer=licon1_NDIFF $count=2 $X=0.98
+ $Y=0.575 $X2=1.12 $Y2=0.825
r177 1 71 91 $w=1.7e-07 $l=3.06186e-07 $layer=licon1_NDIFF $count=2 $X=0.135
+ $Y=0.575 $X2=0.26 $Y2=0.825
.ends

.subckt PM_SKY130_OSU_SC_18T_HS__INV_10%VDD 1 2 3 4 5 6 53 57 61 67 71 77 81 87
+ 91 97 101 108 121 125
r96 121 125 1.90014 $w=3.05e-07 $l=4.08e-06 $layer=MET1_cond $X=0.34 $Y=6.507
+ $X2=4.42 $Y2=6.507
r97 113 121 2.65714 $w=1.7e-07 $l=5.95e-07 $layer=mcon $count=3 $X=0.34 $Y=6.47
+ $X2=0.34 $Y2=6.47
r98 108 111 155.273 $w=1.68e-07 $l=2.38e-06 $layer=LI1_cond $X=4.56 $Y=3.455
+ $X2=4.56 $Y2=5.835
r99 106 111 33.9251 $w=1.68e-07 $l=5.2e-07 $layer=LI1_cond $X=4.56 $Y=6.355
+ $X2=4.56 $Y2=5.835
r100 104 125 2.65714 $w=1.7e-07 $l=5.95e-07 $layer=mcon $count=3 $X=4.42 $Y=6.47
+ $X2=4.42 $Y2=6.47
r101 102 119 3.10218 $w=3.05e-07 $l=8.5e-08 $layer=LI1_cond $X=3.785 $Y=6.507
+ $X2=3.7 $Y2=6.507
r102 102 104 23.9935 $w=3.03e-07 $l=6.35e-07 $layer=LI1_cond $X=3.785 $Y=6.507
+ $X2=4.42 $Y2=6.507
r103 101 106 7.55824 $w=3.05e-07 $l=1.898e-07 $layer=LI1_cond $X=4.475 $Y=6.507
+ $X2=4.56 $Y2=6.355
r104 101 104 2.07818 $w=3.03e-07 $l=5.5e-08 $layer=LI1_cond $X=4.475 $Y=6.507
+ $X2=4.42 $Y2=6.507
r105 97 100 155.273 $w=1.68e-07 $l=2.38e-06 $layer=LI1_cond $X=3.7 $Y=3.455
+ $X2=3.7 $Y2=5.835
r106 95 119 3.51065 $w=1.7e-07 $l=1.52e-07 $layer=LI1_cond $X=3.7 $Y=6.355
+ $X2=3.7 $Y2=6.507
r107 95 100 33.9251 $w=1.68e-07 $l=5.2e-07 $layer=LI1_cond $X=3.7 $Y=6.355
+ $X2=3.7 $Y2=5.835
r108 92 117 3.10218 $w=3.05e-07 $l=8.5e-08 $layer=LI1_cond $X=2.925 $Y=6.507
+ $X2=2.84 $Y2=6.507
r109 92 94 5.10098 $w=3.03e-07 $l=1.35e-07 $layer=LI1_cond $X=2.925 $Y=6.507
+ $X2=3.06 $Y2=6.507
r110 91 119 3.10218 $w=3.05e-07 $l=8.5e-08 $layer=LI1_cond $X=3.615 $Y=6.507
+ $X2=3.7 $Y2=6.507
r111 91 94 20.9707 $w=3.03e-07 $l=5.55e-07 $layer=LI1_cond $X=3.615 $Y=6.507
+ $X2=3.06 $Y2=6.507
r112 87 90 155.273 $w=1.68e-07 $l=2.38e-06 $layer=LI1_cond $X=2.84 $Y=3.455
+ $X2=2.84 $Y2=5.835
r113 85 117 3.51065 $w=1.7e-07 $l=1.52e-07 $layer=LI1_cond $X=2.84 $Y=6.355
+ $X2=2.84 $Y2=6.507
r114 85 90 33.9251 $w=1.68e-07 $l=5.2e-07 $layer=LI1_cond $X=2.84 $Y=6.355
+ $X2=2.84 $Y2=5.835
r115 82 116 3.10218 $w=3.05e-07 $l=8.5e-08 $layer=LI1_cond $X=2.065 $Y=6.507
+ $X2=1.98 $Y2=6.507
r116 82 84 11.9023 $w=3.03e-07 $l=3.15e-07 $layer=LI1_cond $X=2.065 $Y=6.507
+ $X2=2.38 $Y2=6.507
r117 81 117 3.10218 $w=3.05e-07 $l=8.5e-08 $layer=LI1_cond $X=2.755 $Y=6.507
+ $X2=2.84 $Y2=6.507
r118 81 84 14.1694 $w=3.03e-07 $l=3.75e-07 $layer=LI1_cond $X=2.755 $Y=6.507
+ $X2=2.38 $Y2=6.507
r119 77 80 155.273 $w=1.68e-07 $l=2.38e-06 $layer=LI1_cond $X=1.98 $Y=3.455
+ $X2=1.98 $Y2=5.835
r120 75 116 3.51065 $w=1.7e-07 $l=1.52e-07 $layer=LI1_cond $X=1.98 $Y=6.355
+ $X2=1.98 $Y2=6.507
r121 75 80 33.9251 $w=1.68e-07 $l=5.2e-07 $layer=LI1_cond $X=1.98 $Y=6.355
+ $X2=1.98 $Y2=5.835
r122 72 115 3.10218 $w=3.05e-07 $l=8.5e-08 $layer=LI1_cond $X=1.205 $Y=6.507
+ $X2=1.12 $Y2=6.507
r123 72 74 18.7036 $w=3.03e-07 $l=4.95e-07 $layer=LI1_cond $X=1.205 $Y=6.507
+ $X2=1.7 $Y2=6.507
r124 71 116 3.10218 $w=3.05e-07 $l=8.5e-08 $layer=LI1_cond $X=1.895 $Y=6.507
+ $X2=1.98 $Y2=6.507
r125 71 74 7.36808 $w=3.03e-07 $l=1.95e-07 $layer=LI1_cond $X=1.895 $Y=6.507
+ $X2=1.7 $Y2=6.507
r126 67 70 155.273 $w=1.68e-07 $l=2.38e-06 $layer=LI1_cond $X=1.12 $Y=3.455
+ $X2=1.12 $Y2=5.835
r127 65 115 3.51065 $w=1.7e-07 $l=1.52e-07 $layer=LI1_cond $X=1.12 $Y=6.355
+ $X2=1.12 $Y2=6.507
r128 65 70 33.9251 $w=1.68e-07 $l=5.2e-07 $layer=LI1_cond $X=1.12 $Y=6.355
+ $X2=1.12 $Y2=5.835
r129 62 113 3.16604 $w=3.05e-07 $l=1.73e-07 $layer=LI1_cond $X=0.345 $Y=6.507
+ $X2=0.172 $Y2=6.507
r130 62 64 25.5049 $w=3.03e-07 $l=6.75e-07 $layer=LI1_cond $X=0.345 $Y=6.507
+ $X2=1.02 $Y2=6.507
r131 61 115 3.10218 $w=3.05e-07 $l=8.5e-08 $layer=LI1_cond $X=1.035 $Y=6.507
+ $X2=1.12 $Y2=6.507
r132 61 64 0.566775 $w=3.03e-07 $l=1.5e-08 $layer=LI1_cond $X=1.035 $Y=6.507
+ $X2=1.02 $Y2=6.507
r133 57 60 110.909 $w=1.68e-07 $l=1.7e-06 $layer=LI1_cond $X=0.26 $Y=4.135
+ $X2=0.26 $Y2=5.835
r134 55 113 4.3922 $w=1.7e-07 $l=1.90997e-07 $layer=LI1_cond $X=0.26 $Y=6.355
+ $X2=0.172 $Y2=6.507
r135 55 60 33.9251 $w=1.68e-07 $l=5.2e-07 $layer=LI1_cond $X=0.26 $Y=6.355
+ $X2=0.26 $Y2=5.835
r136 53 104 182 $w=1.7e-07 $l=2.43824e-07 $layer=licon1_NTAP_notbjt $count=1
+ $X=4.215 $Y=6.355 $X2=4.42 $Y2=6.44
r137 53 119 182 $w=1.7e-07 $l=2.43824e-07 $layer=licon1_NTAP_notbjt $count=1
+ $X=3.535 $Y=6.355 $X2=3.74 $Y2=6.44
r138 53 94 182 $w=1.7e-07 $l=2.43824e-07 $layer=licon1_NTAP_notbjt $count=1
+ $X=2.855 $Y=6.355 $X2=3.06 $Y2=6.44
r139 53 84 182 $w=1.7e-07 $l=2.43824e-07 $layer=licon1_NTAP_notbjt $count=1
+ $X=2.175 $Y=6.355 $X2=2.38 $Y2=6.44
r140 53 74 182 $w=1.7e-07 $l=2.43824e-07 $layer=licon1_NTAP_notbjt $count=1
+ $X=1.495 $Y=6.355 $X2=1.7 $Y2=6.44
r141 53 64 182 $w=1.7e-07 $l=2.43824e-07 $layer=licon1_NTAP_notbjt $count=1
+ $X=0.815 $Y=6.355 $X2=1.02 $Y2=6.44
r142 53 113 182 $w=1.7e-07 $l=2.43824e-07 $layer=licon1_NTAP_notbjt $count=1
+ $X=0.135 $Y=6.355 $X2=0.34 $Y2=6.44
r143 6 111 150 $w=1.7e-07 $l=2.81913e-06 $layer=licon1_PDIFF $count=4 $X=4.42
+ $Y=3.085 $X2=4.56 $Y2=5.835
r144 6 108 150 $w=1.7e-07 $l=4.34396e-07 $layer=licon1_PDIFF $count=4 $X=4.42
+ $Y=3.085 $X2=4.56 $Y2=3.455
r145 5 100 150 $w=1.7e-07 $l=2.81913e-06 $layer=licon1_PDIFF $count=4 $X=3.56
+ $Y=3.085 $X2=3.7 $Y2=5.835
r146 5 97 150 $w=1.7e-07 $l=4.34396e-07 $layer=licon1_PDIFF $count=4 $X=3.56
+ $Y=3.085 $X2=3.7 $Y2=3.455
r147 4 90 150 $w=1.7e-07 $l=2.81913e-06 $layer=licon1_PDIFF $count=4 $X=2.7
+ $Y=3.085 $X2=2.84 $Y2=5.835
r148 4 87 150 $w=1.7e-07 $l=4.34396e-07 $layer=licon1_PDIFF $count=4 $X=2.7
+ $Y=3.085 $X2=2.84 $Y2=3.455
r149 3 80 150 $w=1.7e-07 $l=2.81913e-06 $layer=licon1_PDIFF $count=4 $X=1.84
+ $Y=3.085 $X2=1.98 $Y2=5.835
r150 3 77 150 $w=1.7e-07 $l=4.34396e-07 $layer=licon1_PDIFF $count=4 $X=1.84
+ $Y=3.085 $X2=1.98 $Y2=3.455
r151 2 70 150 $w=1.7e-07 $l=2.81913e-06 $layer=licon1_PDIFF $count=4 $X=0.98
+ $Y=3.085 $X2=1.12 $Y2=5.835
r152 2 67 150 $w=1.7e-07 $l=4.34396e-07 $layer=licon1_PDIFF $count=4 $X=0.98
+ $Y=3.085 $X2=1.12 $Y2=3.455
r153 1 60 200 $w=1.7e-07 $l=2.81181e-06 $layer=licon1_PDIFF $count=3 $X=0.135
+ $Y=3.085 $X2=0.26 $Y2=5.835
r154 1 57 200 $w=1.7e-07 $l=1.11074e-06 $layer=licon1_PDIFF $count=3 $X=0.135
+ $Y=3.085 $X2=0.26 $Y2=4.135
.ends

.subckt PM_SKY130_OSU_SC_18T_HS__INV_10%A 1 3 7 8 10 11 13 15 17 18 20 21 23 25
+ 27 28 30 31 33 35 37 38 40 41 43 45 47 49 50 52 53 55 57 59 60 62 63 65 67 69
+ 70 72 73 75 77 79 80 82 83 85 87 89 90 92 93 95 97 99 100 102 103 105 106 108
+ 109 110 111 112 113 114 115 116 117 118 119 120 121 122 123 124 127 129 131
+ 134
c289 90 0 1.33323e-19 $X=3.915 $Y=2.96
c290 87 0 1.33323e-19 $X=3.915 $Y=1.7
c291 80 0 1.33323e-19 $X=3.485 $Y=2.96
c292 77 0 1.33323e-19 $X=3.485 $Y=1.7
c293 70 0 1.33323e-19 $X=3.055 $Y=2.96
c294 67 0 1.33323e-19 $X=3.055 $Y=1.7
c295 60 0 1.33323e-19 $X=2.625 $Y=2.96
c296 57 0 1.33323e-19 $X=2.625 $Y=1.7
c297 50 0 1.33323e-19 $X=2.195 $Y=2.96
c298 45 0 1.33323e-19 $X=2.195 $Y=1.7
c299 38 0 1.33323e-19 $X=1.765 $Y=2.96
c300 35 0 1.33323e-19 $X=1.765 $Y=1.7
c301 28 0 1.33323e-19 $X=1.335 $Y=2.96
c302 25 0 1.33323e-19 $X=1.335 $Y=1.7
c303 18 0 1.33323e-19 $X=0.905 $Y=2.96
c304 15 0 1.33323e-19 $X=0.905 $Y=1.7
r305 134 137 0.00150602 $w=4.15e-07 $l=5e-09 $layer=MET1_cond $X=0.405 $Y=3.325
+ $X2=0.405 $Y2=3.33
r306 129 131 8.48128 $w=1.68e-07 $l=1.3e-07 $layer=LI1_cond $X=0.405 $Y=2.305
+ $X2=0.535 $Y2=2.305
r307 127 137 9.3 $w=1.7e-07 $l=1.7e-07 $layer=mcon $count=1 $X=0.32 $Y=3.33
+ $X2=0.32 $Y2=3.33
r308 125 129 6.81649 $w=1.7e-07 $l=1.20208e-07 $layer=LI1_cond $X=0.32 $Y=2.39
+ $X2=0.405 $Y2=2.305
r309 125 127 61.3262 $w=1.68e-07 $l=9.4e-07 $layer=LI1_cond $X=0.32 $Y=2.39
+ $X2=0.32 $Y2=3.33
r310 105 131 145.28 $w=1.7e-07 $l=1.7e-07 $layer=licon1_POLY $count=1 $X=0.535
+ $Y=2.305 $X2=0.535 $Y2=2.305
r311 105 107 48.4159 $w=2.7e-07 $l=1.65e-07 $layer=POLY_cond $X=0.535 $Y=2.305
+ $X2=0.535 $Y2=2.47
r312 105 106 48.4159 $w=2.7e-07 $l=1.65e-07 $layer=POLY_cond $X=0.535 $Y=2.305
+ $X2=0.535 $Y2=2.14
r313 100 102 522.167 $w=1.5e-07 $l=1.625e-06 $layer=POLY_cond $X=4.345 $Y=2.96
+ $X2=4.345 $Y2=4.585
r314 97 99 200.833 $w=1.5e-07 $l=6.25e-07 $layer=POLY_cond $X=4.345 $Y=1.7
+ $X2=4.345 $Y2=1.075
r315 96 124 20.4101 $w=1.5e-07 $l=7.5e-08 $layer=POLY_cond $X=3.99 $Y=2.885
+ $X2=3.915 $Y2=2.885
r316 95 100 26.9307 $w=1.5e-07 $l=1.06066e-07 $layer=POLY_cond $X=4.27 $Y=2.885
+ $X2=4.345 $Y2=2.96
r317 95 96 143.574 $w=1.5e-07 $l=2.8e-07 $layer=POLY_cond $X=4.27 $Y=2.885
+ $X2=3.99 $Y2=2.885
r318 94 123 20.4101 $w=1.5e-07 $l=7.5e-08 $layer=POLY_cond $X=3.99 $Y=1.775
+ $X2=3.915 $Y2=1.775
r319 93 97 26.9307 $w=1.5e-07 $l=1.06066e-07 $layer=POLY_cond $X=4.27 $Y=1.775
+ $X2=4.345 $Y2=1.7
r320 93 94 143.574 $w=1.5e-07 $l=2.8e-07 $layer=POLY_cond $X=4.27 $Y=1.775
+ $X2=3.99 $Y2=1.775
r321 90 124 5.30422 $w=1.5e-07 $l=7.5e-08 $layer=POLY_cond $X=3.915 $Y=2.96
+ $X2=3.915 $Y2=2.885
r322 90 92 522.167 $w=1.5e-07 $l=1.625e-06 $layer=POLY_cond $X=3.915 $Y=2.96
+ $X2=3.915 $Y2=4.585
r323 87 123 5.30422 $w=1.5e-07 $l=7.5e-08 $layer=POLY_cond $X=3.915 $Y=1.7
+ $X2=3.915 $Y2=1.775
r324 87 89 200.833 $w=1.5e-07 $l=6.25e-07 $layer=POLY_cond $X=3.915 $Y=1.7
+ $X2=3.915 $Y2=1.075
r325 86 122 20.4101 $w=1.5e-07 $l=7.5e-08 $layer=POLY_cond $X=3.56 $Y=2.885
+ $X2=3.485 $Y2=2.885
r326 85 124 20.4101 $w=1.5e-07 $l=7.5e-08 $layer=POLY_cond $X=3.84 $Y=2.885
+ $X2=3.915 $Y2=2.885
r327 85 86 143.574 $w=1.5e-07 $l=2.8e-07 $layer=POLY_cond $X=3.84 $Y=2.885
+ $X2=3.56 $Y2=2.885
r328 84 121 20.4101 $w=1.5e-07 $l=7.5e-08 $layer=POLY_cond $X=3.56 $Y=1.775
+ $X2=3.485 $Y2=1.775
r329 83 123 20.4101 $w=1.5e-07 $l=7.5e-08 $layer=POLY_cond $X=3.84 $Y=1.775
+ $X2=3.915 $Y2=1.775
r330 83 84 143.574 $w=1.5e-07 $l=2.8e-07 $layer=POLY_cond $X=3.84 $Y=1.775
+ $X2=3.56 $Y2=1.775
r331 80 122 5.30422 $w=1.5e-07 $l=7.5e-08 $layer=POLY_cond $X=3.485 $Y=2.96
+ $X2=3.485 $Y2=2.885
r332 80 82 522.167 $w=1.5e-07 $l=1.625e-06 $layer=POLY_cond $X=3.485 $Y=2.96
+ $X2=3.485 $Y2=4.585
r333 77 121 5.30422 $w=1.5e-07 $l=7.5e-08 $layer=POLY_cond $X=3.485 $Y=1.7
+ $X2=3.485 $Y2=1.775
r334 77 79 200.833 $w=1.5e-07 $l=6.25e-07 $layer=POLY_cond $X=3.485 $Y=1.7
+ $X2=3.485 $Y2=1.075
r335 76 120 20.4101 $w=1.5e-07 $l=7.5e-08 $layer=POLY_cond $X=3.13 $Y=2.885
+ $X2=3.055 $Y2=2.885
r336 75 122 20.4101 $w=1.5e-07 $l=7.5e-08 $layer=POLY_cond $X=3.41 $Y=2.885
+ $X2=3.485 $Y2=2.885
r337 75 76 143.574 $w=1.5e-07 $l=2.8e-07 $layer=POLY_cond $X=3.41 $Y=2.885
+ $X2=3.13 $Y2=2.885
r338 74 119 20.4101 $w=1.5e-07 $l=7.5e-08 $layer=POLY_cond $X=3.13 $Y=1.775
+ $X2=3.055 $Y2=1.775
r339 73 121 20.4101 $w=1.5e-07 $l=7.5e-08 $layer=POLY_cond $X=3.41 $Y=1.775
+ $X2=3.485 $Y2=1.775
r340 73 74 143.574 $w=1.5e-07 $l=2.8e-07 $layer=POLY_cond $X=3.41 $Y=1.775
+ $X2=3.13 $Y2=1.775
r341 70 120 5.30422 $w=1.5e-07 $l=7.5e-08 $layer=POLY_cond $X=3.055 $Y=2.96
+ $X2=3.055 $Y2=2.885
r342 70 72 522.167 $w=1.5e-07 $l=1.625e-06 $layer=POLY_cond $X=3.055 $Y=2.96
+ $X2=3.055 $Y2=4.585
r343 67 119 5.30422 $w=1.5e-07 $l=7.5e-08 $layer=POLY_cond $X=3.055 $Y=1.7
+ $X2=3.055 $Y2=1.775
r344 67 69 200.833 $w=1.5e-07 $l=6.25e-07 $layer=POLY_cond $X=3.055 $Y=1.7
+ $X2=3.055 $Y2=1.075
r345 66 118 20.4101 $w=1.5e-07 $l=7.5e-08 $layer=POLY_cond $X=2.7 $Y=2.885
+ $X2=2.625 $Y2=2.885
r346 65 120 20.4101 $w=1.5e-07 $l=7.5e-08 $layer=POLY_cond $X=2.98 $Y=2.885
+ $X2=3.055 $Y2=2.885
r347 65 66 143.574 $w=1.5e-07 $l=2.8e-07 $layer=POLY_cond $X=2.98 $Y=2.885
+ $X2=2.7 $Y2=2.885
r348 64 117 20.4101 $w=1.5e-07 $l=7.5e-08 $layer=POLY_cond $X=2.7 $Y=1.775
+ $X2=2.625 $Y2=1.775
r349 63 119 20.4101 $w=1.5e-07 $l=7.5e-08 $layer=POLY_cond $X=2.98 $Y=1.775
+ $X2=3.055 $Y2=1.775
r350 63 64 143.574 $w=1.5e-07 $l=2.8e-07 $layer=POLY_cond $X=2.98 $Y=1.775
+ $X2=2.7 $Y2=1.775
r351 60 118 5.30422 $w=1.5e-07 $l=7.5e-08 $layer=POLY_cond $X=2.625 $Y=2.96
+ $X2=2.625 $Y2=2.885
r352 60 62 522.167 $w=1.5e-07 $l=1.625e-06 $layer=POLY_cond $X=2.625 $Y=2.96
+ $X2=2.625 $Y2=4.585
r353 57 117 5.30422 $w=1.5e-07 $l=7.5e-08 $layer=POLY_cond $X=2.625 $Y=1.7
+ $X2=2.625 $Y2=1.775
r354 57 59 200.833 $w=1.5e-07 $l=6.25e-07 $layer=POLY_cond $X=2.625 $Y=1.7
+ $X2=2.625 $Y2=1.075
r355 56 116 24.1 $w=1.5e-07 $l=7.5e-08 $layer=POLY_cond $X=2.27 $Y=2.885
+ $X2=2.195 $Y2=2.885
r356 55 118 20.4101 $w=1.5e-07 $l=7.5e-08 $layer=POLY_cond $X=2.55 $Y=2.885
+ $X2=2.625 $Y2=2.885
r357 55 56 143.574 $w=1.5e-07 $l=2.8e-07 $layer=POLY_cond $X=2.55 $Y=2.885
+ $X2=2.27 $Y2=2.885
r358 54 115 24.1 $w=1.5e-07 $l=7.5e-08 $layer=POLY_cond $X=2.27 $Y=1.775
+ $X2=2.195 $Y2=1.775
r359 53 117 20.4101 $w=1.5e-07 $l=7.5e-08 $layer=POLY_cond $X=2.55 $Y=1.775
+ $X2=2.625 $Y2=1.775
r360 53 54 143.574 $w=1.5e-07 $l=2.8e-07 $layer=POLY_cond $X=2.55 $Y=1.775
+ $X2=2.27 $Y2=1.775
r361 50 116 24.1 $w=1.5e-07 $l=7.5e-08 $layer=POLY_cond $X=2.195 $Y=2.96
+ $X2=2.195 $Y2=2.885
r362 50 52 522.167 $w=1.5e-07 $l=1.625e-06 $layer=POLY_cond $X=2.195 $Y=2.96
+ $X2=2.195 $Y2=4.585
r363 49 116 24.1 $w=1.5e-07 $l=7.5e-08 $layer=POLY_cond $X=2.195 $Y=2.81
+ $X2=2.195 $Y2=2.885
r364 48 115 24.1 $w=1.5e-07 $l=7.5e-08 $layer=POLY_cond $X=2.195 $Y=1.85
+ $X2=2.195 $Y2=1.775
r365 48 49 492.255 $w=1.5e-07 $l=9.6e-07 $layer=POLY_cond $X=2.195 $Y=1.85
+ $X2=2.195 $Y2=2.81
r366 45 115 24.1 $w=1.5e-07 $l=7.5e-08 $layer=POLY_cond $X=2.195 $Y=1.7
+ $X2=2.195 $Y2=1.775
r367 45 47 200.833 $w=1.5e-07 $l=6.25e-07 $layer=POLY_cond $X=2.195 $Y=1.7
+ $X2=2.195 $Y2=1.075
r368 44 114 20.4101 $w=1.5e-07 $l=7.5e-08 $layer=POLY_cond $X=1.84 $Y=2.885
+ $X2=1.765 $Y2=2.885
r369 43 116 24.1 $w=1.5e-07 $l=7.5e-08 $layer=POLY_cond $X=2.12 $Y=2.885
+ $X2=2.195 $Y2=2.885
r370 43 44 143.574 $w=1.5e-07 $l=2.8e-07 $layer=POLY_cond $X=2.12 $Y=2.885
+ $X2=1.84 $Y2=2.885
r371 42 113 20.4101 $w=1.5e-07 $l=7.5e-08 $layer=POLY_cond $X=1.84 $Y=1.775
+ $X2=1.765 $Y2=1.775
r372 41 115 24.1 $w=1.5e-07 $l=7.5e-08 $layer=POLY_cond $X=2.12 $Y=1.775
+ $X2=2.195 $Y2=1.775
r373 41 42 143.574 $w=1.5e-07 $l=2.8e-07 $layer=POLY_cond $X=2.12 $Y=1.775
+ $X2=1.84 $Y2=1.775
r374 38 114 5.30422 $w=1.5e-07 $l=7.5e-08 $layer=POLY_cond $X=1.765 $Y=2.96
+ $X2=1.765 $Y2=2.885
r375 38 40 522.167 $w=1.5e-07 $l=1.625e-06 $layer=POLY_cond $X=1.765 $Y=2.96
+ $X2=1.765 $Y2=4.585
r376 35 113 5.30422 $w=1.5e-07 $l=7.5e-08 $layer=POLY_cond $X=1.765 $Y=1.7
+ $X2=1.765 $Y2=1.775
r377 35 37 200.833 $w=1.5e-07 $l=6.25e-07 $layer=POLY_cond $X=1.765 $Y=1.7
+ $X2=1.765 $Y2=1.075
r378 34 112 20.4101 $w=1.5e-07 $l=7.5e-08 $layer=POLY_cond $X=1.41 $Y=2.885
+ $X2=1.335 $Y2=2.885
r379 33 114 20.4101 $w=1.5e-07 $l=7.5e-08 $layer=POLY_cond $X=1.69 $Y=2.885
+ $X2=1.765 $Y2=2.885
r380 33 34 143.574 $w=1.5e-07 $l=2.8e-07 $layer=POLY_cond $X=1.69 $Y=2.885
+ $X2=1.41 $Y2=2.885
r381 32 111 20.4101 $w=1.5e-07 $l=7.5e-08 $layer=POLY_cond $X=1.41 $Y=1.775
+ $X2=1.335 $Y2=1.775
r382 31 113 20.4101 $w=1.5e-07 $l=7.5e-08 $layer=POLY_cond $X=1.69 $Y=1.775
+ $X2=1.765 $Y2=1.775
r383 31 32 143.574 $w=1.5e-07 $l=2.8e-07 $layer=POLY_cond $X=1.69 $Y=1.775
+ $X2=1.41 $Y2=1.775
r384 28 112 5.30422 $w=1.5e-07 $l=7.5e-08 $layer=POLY_cond $X=1.335 $Y=2.96
+ $X2=1.335 $Y2=2.885
r385 28 30 522.167 $w=1.5e-07 $l=1.625e-06 $layer=POLY_cond $X=1.335 $Y=2.96
+ $X2=1.335 $Y2=4.585
r386 25 111 5.30422 $w=1.5e-07 $l=7.5e-08 $layer=POLY_cond $X=1.335 $Y=1.7
+ $X2=1.335 $Y2=1.775
r387 25 27 200.833 $w=1.5e-07 $l=6.25e-07 $layer=POLY_cond $X=1.335 $Y=1.7
+ $X2=1.335 $Y2=1.075
r388 24 110 20.4101 $w=1.5e-07 $l=7.5e-08 $layer=POLY_cond $X=0.98 $Y=2.885
+ $X2=0.905 $Y2=2.885
r389 23 112 20.4101 $w=1.5e-07 $l=7.5e-08 $layer=POLY_cond $X=1.26 $Y=2.885
+ $X2=1.335 $Y2=2.885
r390 23 24 143.574 $w=1.5e-07 $l=2.8e-07 $layer=POLY_cond $X=1.26 $Y=2.885
+ $X2=0.98 $Y2=2.885
r391 22 109 20.4101 $w=1.5e-07 $l=7.5e-08 $layer=POLY_cond $X=0.98 $Y=1.775
+ $X2=0.905 $Y2=1.775
r392 21 111 20.4101 $w=1.5e-07 $l=7.5e-08 $layer=POLY_cond $X=1.26 $Y=1.775
+ $X2=1.335 $Y2=1.775
r393 21 22 143.574 $w=1.5e-07 $l=2.8e-07 $layer=POLY_cond $X=1.26 $Y=1.775
+ $X2=0.98 $Y2=1.775
r394 18 110 5.30422 $w=1.5e-07 $l=7.5e-08 $layer=POLY_cond $X=0.905 $Y=2.96
+ $X2=0.905 $Y2=2.885
r395 18 20 522.167 $w=1.5e-07 $l=1.625e-06 $layer=POLY_cond $X=0.905 $Y=2.96
+ $X2=0.905 $Y2=4.585
r396 15 109 5.30422 $w=1.5e-07 $l=7.5e-08 $layer=POLY_cond $X=0.905 $Y=1.7
+ $X2=0.905 $Y2=1.775
r397 15 17 200.833 $w=1.5e-07 $l=6.25e-07 $layer=POLY_cond $X=0.905 $Y=1.7
+ $X2=0.905 $Y2=1.075
r398 14 108 5.30422 $w=1.5e-07 $l=7.5e-08 $layer=POLY_cond $X=0.55 $Y=2.885
+ $X2=0.475 $Y2=2.885
r399 13 110 20.4101 $w=1.5e-07 $l=7.5e-08 $layer=POLY_cond $X=0.83 $Y=2.885
+ $X2=0.905 $Y2=2.885
r400 13 14 143.574 $w=1.5e-07 $l=2.8e-07 $layer=POLY_cond $X=0.83 $Y=2.885
+ $X2=0.55 $Y2=2.885
r401 12 103 5.30422 $w=1.5e-07 $l=7.5e-08 $layer=POLY_cond $X=0.55 $Y=1.775
+ $X2=0.475 $Y2=1.775
r402 11 109 20.4101 $w=1.5e-07 $l=7.5e-08 $layer=POLY_cond $X=0.83 $Y=1.775
+ $X2=0.905 $Y2=1.775
r403 11 12 143.574 $w=1.5e-07 $l=2.8e-07 $layer=POLY_cond $X=0.83 $Y=1.775
+ $X2=0.55 $Y2=1.775
r404 8 108 20.4101 $w=1.5e-07 $l=7.5e-08 $layer=POLY_cond $X=0.475 $Y=2.96
+ $X2=0.475 $Y2=2.885
r405 8 10 522.167 $w=1.5e-07 $l=1.625e-06 $layer=POLY_cond $X=0.475 $Y=2.96
+ $X2=0.475 $Y2=4.585
r406 7 108 20.4101 $w=1.5e-07 $l=7.5e-08 $layer=POLY_cond $X=0.475 $Y=2.81
+ $X2=0.475 $Y2=2.885
r407 7 107 174.34 $w=1.5e-07 $l=3.4e-07 $layer=POLY_cond $X=0.475 $Y=2.81
+ $X2=0.475 $Y2=2.47
r408 4 103 20.4101 $w=1.5e-07 $l=7.5e-08 $layer=POLY_cond $X=0.475 $Y=1.85
+ $X2=0.475 $Y2=1.775
r409 4 106 148.702 $w=1.5e-07 $l=2.9e-07 $layer=POLY_cond $X=0.475 $Y=1.85
+ $X2=0.475 $Y2=2.14
r410 1 103 20.4101 $w=1.5e-07 $l=7.5e-08 $layer=POLY_cond $X=0.475 $Y=1.7
+ $X2=0.475 $Y2=1.775
r411 1 3 200.833 $w=1.5e-07 $l=6.25e-07 $layer=POLY_cond $X=0.475 $Y=1.7
+ $X2=0.475 $Y2=1.075
.ends

.subckt PM_SKY130_OSU_SC_18T_HS__INV_10%Y 1 2 3 4 5 11 12 13 14 15 42 48 56 62
+ 70 76 84 90 98 104 111 112 114 116 118 121 122 123 124 125 127 128 129 130 131
+ 133 134 135 136 137 138 139
c213 139 0 1.33323e-19 $X=4.13 $Y=2.845
c214 138 0 1.33323e-19 $X=4.13 $Y=1.595
c215 137 0 2.66647e-19 $X=3.415 $Y=2.96
c216 135 0 2.66647e-19 $X=3.415 $Y=1.48
c217 131 0 2.66647e-19 $X=2.555 $Y=2.96
c218 129 0 2.66647e-19 $X=2.555 $Y=1.48
c219 125 0 2.66647e-19 $X=1.695 $Y=2.96
c220 123 0 2.66647e-19 $X=1.695 $Y=1.48
c221 112 0 1.33323e-19 $X=0.69 $Y=2.845
c222 111 0 1.33323e-19 $X=0.69 $Y=1.595
r223 139 159 0.0308913 $w=1.7e-07 $l=1.15e-07 $layer=MET1_cond $X=4.13 $Y=2.845
+ $X2=4.13 $Y2=2.96
r224 138 157 0.0308913 $w=1.7e-07 $l=1.15e-07 $layer=MET1_cond $X=4.13 $Y=1.595
+ $X2=4.13 $Y2=1.48
r225 138 139 1.2036 $w=1.7e-07 $l=1.25e-06 $layer=MET1_cond $X=4.13 $Y=1.595
+ $X2=4.13 $Y2=2.845
r226 137 155 0.103375 $w=2.3e-07 $l=1.45e-07 $layer=MET1_cond $X=3.415 $Y=2.96
+ $X2=3.27 $Y2=2.96
r227 136 159 0.0389498 $w=1.7e-07 $l=1.45e-07 $layer=MET1_cond $X=3.985 $Y=2.96
+ $X2=4.13 $Y2=2.96
r228 136 137 0.548843 $w=1.7e-07 $l=5.7e-07 $layer=MET1_cond $X=3.985 $Y=2.96
+ $X2=3.415 $Y2=2.96
r229 135 153 0.103375 $w=2.3e-07 $l=1.45e-07 $layer=MET1_cond $X=3.415 $Y=1.48
+ $X2=3.27 $Y2=1.48
r230 134 157 0.0389498 $w=1.7e-07 $l=1.45e-07 $layer=MET1_cond $X=3.985 $Y=1.48
+ $X2=4.13 $Y2=1.48
r231 134 135 0.548843 $w=1.7e-07 $l=5.7e-07 $layer=MET1_cond $X=3.985 $Y=1.48
+ $X2=3.415 $Y2=1.48
r232 133 155 0.0257089 $w=1.7e-07 $l=1.15e-07 $layer=MET1_cond $X=3.27 $Y=2.845
+ $X2=3.27 $Y2=2.96
r233 132 153 0.0257089 $w=1.7e-07 $l=1.15e-07 $layer=MET1_cond $X=3.27 $Y=1.595
+ $X2=3.27 $Y2=1.48
r234 132 133 1.2036 $w=1.7e-07 $l=1.25e-06 $layer=MET1_cond $X=3.27 $Y=1.595
+ $X2=3.27 $Y2=2.845
r235 131 151 0.103375 $w=2.3e-07 $l=1.45e-07 $layer=MET1_cond $X=2.555 $Y=2.96
+ $X2=2.41 $Y2=2.96
r236 130 155 0.103375 $w=2.3e-07 $l=1.45e-07 $layer=MET1_cond $X=3.125 $Y=2.96
+ $X2=3.27 $Y2=2.96
r237 130 131 0.548843 $w=1.7e-07 $l=5.7e-07 $layer=MET1_cond $X=3.125 $Y=2.96
+ $X2=2.555 $Y2=2.96
r238 129 149 0.103375 $w=2.3e-07 $l=1.45e-07 $layer=MET1_cond $X=2.555 $Y=1.48
+ $X2=2.41 $Y2=1.48
r239 128 153 0.103375 $w=2.3e-07 $l=1.45e-07 $layer=MET1_cond $X=3.125 $Y=1.48
+ $X2=3.27 $Y2=1.48
r240 128 129 0.548843 $w=1.7e-07 $l=5.7e-07 $layer=MET1_cond $X=3.125 $Y=1.48
+ $X2=2.555 $Y2=1.48
r241 127 151 0.0257089 $w=1.7e-07 $l=1.15e-07 $layer=MET1_cond $X=2.41 $Y=2.845
+ $X2=2.41 $Y2=2.96
r242 126 149 0.0257089 $w=1.7e-07 $l=1.15e-07 $layer=MET1_cond $X=2.41 $Y=1.595
+ $X2=2.41 $Y2=1.48
r243 126 127 1.2036 $w=1.7e-07 $l=1.25e-06 $layer=MET1_cond $X=2.41 $Y=1.595
+ $X2=2.41 $Y2=2.845
r244 125 147 0.103375 $w=2.3e-07 $l=1.45e-07 $layer=MET1_cond $X=1.695 $Y=2.96
+ $X2=1.55 $Y2=2.96
r245 124 151 0.103375 $w=2.3e-07 $l=1.45e-07 $layer=MET1_cond $X=2.265 $Y=2.96
+ $X2=2.41 $Y2=2.96
r246 124 125 0.548843 $w=1.7e-07 $l=5.7e-07 $layer=MET1_cond $X=2.265 $Y=2.96
+ $X2=1.695 $Y2=2.96
r247 123 145 0.103375 $w=2.3e-07 $l=1.45e-07 $layer=MET1_cond $X=1.695 $Y=1.48
+ $X2=1.55 $Y2=1.48
r248 122 149 0.103375 $w=2.3e-07 $l=1.45e-07 $layer=MET1_cond $X=2.265 $Y=1.48
+ $X2=2.41 $Y2=1.48
r249 122 123 0.548843 $w=1.7e-07 $l=5.7e-07 $layer=MET1_cond $X=2.265 $Y=1.48
+ $X2=1.695 $Y2=1.48
r250 121 147 0.0257089 $w=1.7e-07 $l=1.15e-07 $layer=MET1_cond $X=1.55 $Y=2.845
+ $X2=1.55 $Y2=2.96
r251 120 145 0.0257089 $w=1.7e-07 $l=1.15e-07 $layer=MET1_cond $X=1.55 $Y=1.595
+ $X2=1.55 $Y2=1.48
r252 120 121 1.2036 $w=1.7e-07 $l=1.25e-06 $layer=MET1_cond $X=1.55 $Y=1.595
+ $X2=1.55 $Y2=2.845
r253 119 143 0.0389498 $w=1.7e-07 $l=1.45e-07 $layer=MET1_cond $X=0.835 $Y=2.96
+ $X2=0.69 $Y2=2.96
r254 118 147 0.103375 $w=2.3e-07 $l=1.45e-07 $layer=MET1_cond $X=1.405 $Y=2.96
+ $X2=1.55 $Y2=2.96
r255 118 119 0.548843 $w=1.7e-07 $l=5.7e-07 $layer=MET1_cond $X=1.405 $Y=2.96
+ $X2=0.835 $Y2=2.96
r256 117 141 0.0389498 $w=1.7e-07 $l=1.45e-07 $layer=MET1_cond $X=0.835 $Y=1.48
+ $X2=0.69 $Y2=1.48
r257 116 145 0.103375 $w=2.3e-07 $l=1.45e-07 $layer=MET1_cond $X=1.405 $Y=1.48
+ $X2=1.55 $Y2=1.48
r258 116 117 0.548843 $w=1.7e-07 $l=5.7e-07 $layer=MET1_cond $X=1.405 $Y=1.48
+ $X2=0.835 $Y2=1.48
r259 112 143 0.0308913 $w=1.7e-07 $l=1.15e-07 $layer=MET1_cond $X=0.69 $Y=2.845
+ $X2=0.69 $Y2=2.96
r260 112 114 0.621059 $w=1.7e-07 $l=6.45e-07 $layer=MET1_cond $X=0.69 $Y=2.845
+ $X2=0.69 $Y2=2.2
r261 111 141 0.0308913 $w=1.7e-07 $l=1.15e-07 $layer=MET1_cond $X=0.69 $Y=1.595
+ $X2=0.69 $Y2=1.48
r262 111 114 0.582544 $w=1.7e-07 $l=6.05e-07 $layer=MET1_cond $X=0.69 $Y=1.595
+ $X2=0.69 $Y2=2.2
r263 107 109 155.273 $w=1.68e-07 $l=2.38e-06 $layer=LI1_cond $X=4.13 $Y=3.455
+ $X2=4.13 $Y2=5.835
r264 104 159 9.3 $w=1.7e-07 $l=1.7e-07 $layer=mcon $count=1 $X=4.13 $Y=2.96
+ $X2=4.13 $Y2=2.96
r265 104 107 32.2941 $w=1.68e-07 $l=4.95e-07 $layer=LI1_cond $X=4.13 $Y=2.96
+ $X2=4.13 $Y2=3.455
r266 101 157 9.3 $w=1.7e-07 $l=1.7e-07 $layer=mcon $count=1 $X=4.13 $Y=1.48
+ $X2=4.13 $Y2=1.48
r267 98 101 42.7326 $w=1.68e-07 $l=6.55e-07 $layer=LI1_cond $X=4.13 $Y=0.825
+ $X2=4.13 $Y2=1.48
r268 93 95 155.273 $w=1.68e-07 $l=2.38e-06 $layer=LI1_cond $X=3.27 $Y=3.455
+ $X2=3.27 $Y2=5.835
r269 90 155 9.3 $w=1.7e-07 $l=1.7e-07 $layer=mcon $count=1 $X=3.27 $Y=2.96
+ $X2=3.27 $Y2=2.96
r270 90 93 32.2941 $w=1.68e-07 $l=4.95e-07 $layer=LI1_cond $X=3.27 $Y=2.96
+ $X2=3.27 $Y2=3.455
r271 87 153 9.3 $w=1.7e-07 $l=1.7e-07 $layer=mcon $count=1 $X=3.27 $Y=1.48
+ $X2=3.27 $Y2=1.48
r272 84 87 42.7326 $w=1.68e-07 $l=6.55e-07 $layer=LI1_cond $X=3.27 $Y=0.825
+ $X2=3.27 $Y2=1.48
r273 79 81 155.273 $w=1.68e-07 $l=2.38e-06 $layer=LI1_cond $X=2.41 $Y=3.455
+ $X2=2.41 $Y2=5.835
r274 76 151 9.3 $w=1.7e-07 $l=1.7e-07 $layer=mcon $count=1 $X=2.41 $Y=2.96
+ $X2=2.41 $Y2=2.96
r275 76 79 32.2941 $w=1.68e-07 $l=4.95e-07 $layer=LI1_cond $X=2.41 $Y=2.96
+ $X2=2.41 $Y2=3.455
r276 73 149 9.3 $w=1.7e-07 $l=1.7e-07 $layer=mcon $count=1 $X=2.41 $Y=1.48
+ $X2=2.41 $Y2=1.48
r277 70 73 42.7326 $w=1.68e-07 $l=6.55e-07 $layer=LI1_cond $X=2.41 $Y=0.825
+ $X2=2.41 $Y2=1.48
r278 65 67 155.273 $w=1.68e-07 $l=2.38e-06 $layer=LI1_cond $X=1.55 $Y=3.455
+ $X2=1.55 $Y2=5.835
r279 62 147 9.3 $w=1.7e-07 $l=1.7e-07 $layer=mcon $count=1 $X=1.55 $Y=2.96
+ $X2=1.55 $Y2=2.96
r280 62 65 32.2941 $w=1.68e-07 $l=4.95e-07 $layer=LI1_cond $X=1.55 $Y=2.96
+ $X2=1.55 $Y2=3.455
r281 59 145 9.3 $w=1.7e-07 $l=1.7e-07 $layer=mcon $count=1 $X=1.55 $Y=1.48
+ $X2=1.55 $Y2=1.48
r282 56 59 42.7326 $w=1.68e-07 $l=6.55e-07 $layer=LI1_cond $X=1.55 $Y=0.825
+ $X2=1.55 $Y2=1.48
r283 51 53 155.273 $w=1.68e-07 $l=2.38e-06 $layer=LI1_cond $X=0.69 $Y=3.455
+ $X2=0.69 $Y2=5.835
r284 48 143 9.3 $w=1.7e-07 $l=1.7e-07 $layer=mcon $count=1 $X=0.69 $Y=2.96
+ $X2=0.69 $Y2=2.96
r285 48 51 32.2941 $w=1.68e-07 $l=4.95e-07 $layer=LI1_cond $X=0.69 $Y=2.96
+ $X2=0.69 $Y2=3.455
r286 45 141 9.3 $w=1.7e-07 $l=1.7e-07 $layer=mcon $count=1 $X=0.69 $Y=1.48
+ $X2=0.69 $Y2=1.48
r287 42 45 42.7326 $w=1.68e-07 $l=6.55e-07 $layer=LI1_cond $X=0.69 $Y=0.825
+ $X2=0.69 $Y2=1.48
r288 15 109 150 $w=1.7e-07 $l=2.81913e-06 $layer=licon1_PDIFF $count=4 $X=3.99
+ $Y=3.085 $X2=4.13 $Y2=5.835
r289 15 107 150 $w=1.7e-07 $l=4.34396e-07 $layer=licon1_PDIFF $count=4 $X=3.99
+ $Y=3.085 $X2=4.13 $Y2=3.455
r290 14 95 150 $w=1.7e-07 $l=2.81913e-06 $layer=licon1_PDIFF $count=4 $X=3.13
+ $Y=3.085 $X2=3.27 $Y2=5.835
r291 14 93 150 $w=1.7e-07 $l=4.34396e-07 $layer=licon1_PDIFF $count=4 $X=3.13
+ $Y=3.085 $X2=3.27 $Y2=3.455
r292 13 81 150 $w=1.7e-07 $l=2.81913e-06 $layer=licon1_PDIFF $count=4 $X=2.27
+ $Y=3.085 $X2=2.41 $Y2=5.835
r293 13 79 150 $w=1.7e-07 $l=4.34396e-07 $layer=licon1_PDIFF $count=4 $X=2.27
+ $Y=3.085 $X2=2.41 $Y2=3.455
r294 12 67 150 $w=1.7e-07 $l=2.81913e-06 $layer=licon1_PDIFF $count=4 $X=1.41
+ $Y=3.085 $X2=1.55 $Y2=5.835
r295 12 65 150 $w=1.7e-07 $l=4.34396e-07 $layer=licon1_PDIFF $count=4 $X=1.41
+ $Y=3.085 $X2=1.55 $Y2=3.455
r296 11 53 150 $w=1.7e-07 $l=2.81913e-06 $layer=licon1_PDIFF $count=4 $X=0.55
+ $Y=3.085 $X2=0.69 $Y2=5.835
r297 11 51 150 $w=1.7e-07 $l=4.34396e-07 $layer=licon1_PDIFF $count=4 $X=0.55
+ $Y=3.085 $X2=0.69 $Y2=3.455
r298 5 98 91 $w=1.7e-07 $l=3.1225e-07 $layer=licon1_NDIFF $count=2 $X=3.99
+ $Y=0.575 $X2=4.13 $Y2=0.825
r299 4 84 91 $w=1.7e-07 $l=3.1225e-07 $layer=licon1_NDIFF $count=2 $X=3.13
+ $Y=0.575 $X2=3.27 $Y2=0.825