* File: sky130_osu_sc_18T_ms__ncgateCKa_new.pex.spice
* Created: Wed Mar  9 13:57:25 2022
* Program "Calibre xRC"
* Version "v2021.2_28.15"
* Nominal Temperature: 27C
* Circuit Temperature: 27C
* 
.subckt PM_SKY130_OSU_SC_18T_MS__NCGATECKA_NEW%GND 1 2 3 4 5 6 7 89 93 95 102
+ 104 111 113 123 125 135 137 141 143 151 168 170 175 177 179 181 183 185 187
+ 189 191 193
c181 135 0 1.97615e-19 $X=3.99 $Y=0.8
r182 191 193 0.00232861 $w=3.05e-07 $l=5e-09 $layer=MET1_cond $X=5.695 $Y=0.127
+ $X2=5.7 $Y2=0.127
r183 189 191 0.312033 $w=3.05e-07 $l=6.7e-07 $layer=MET1_cond $X=5.025 $Y=0.127
+ $X2=5.695 $Y2=0.127
r184 187 189 0.454078 $w=3.05e-07 $l=9.75e-07 $layer=MET1_cond $X=4.05 $Y=0.127
+ $X2=5.025 $Y2=0.127
r185 185 187 0.319019 $w=3.05e-07 $l=6.85e-07 $layer=MET1_cond $X=3.365 $Y=0.127
+ $X2=4.05 $Y2=0.127
r186 183 185 0.319019 $w=3.05e-07 $l=6.85e-07 $layer=MET1_cond $X=2.68 $Y=0.127
+ $X2=3.365 $Y2=0.127
r187 181 183 0.316691 $w=3.05e-07 $l=6.8e-07 $layer=MET1_cond $X=2 $Y=0.127
+ $X2=2.68 $Y2=0.127
r188 179 181 0.314362 $w=3.05e-07 $l=6.75e-07 $layer=MET1_cond $X=1.325 $Y=0.127
+ $X2=2 $Y2=0.127
r189 177 179 0.316691 $w=3.05e-07 $l=6.8e-07 $layer=MET1_cond $X=0.645 $Y=0.127
+ $X2=1.325 $Y2=0.127
r190 175 177 0.430792 $w=3.05e-07 $l=9.25e-07 $layer=MET1_cond $X=-0.28 $Y=0.127
+ $X2=0.645 $Y2=0.127
r191 173 175 0.316225 $w=3.05e-07 $l=6.79e-07 $layer=MET1_cond $X=-0.959
+ $Y=0.127 $X2=-0.28 $Y2=0.127
r192 170 173 0.000465721 $w=3.05e-07 $l=1e-09 $layer=MET1_cond $X=-0.96 $Y=0.127
+ $X2=-0.959 $Y2=0.127
r193 149 168 3.51065 $w=1.7e-07 $l=1.53e-07 $layer=LI1_cond $X=5.8 $Y=0.28
+ $X2=5.8 $Y2=0.127
r194 149 151 33.9251 $w=1.68e-07 $l=5.2e-07 $layer=LI1_cond $X=5.8 $Y=0.28
+ $X2=5.8 $Y2=0.8
r195 143 168 3.10218 $w=3.05e-07 $l=8.5e-08 $layer=LI1_cond $X=5.715 $Y=0.127
+ $X2=5.8 $Y2=0.127
r196 139 141 33.9251 $w=1.68e-07 $l=5.2e-07 $layer=LI1_cond $X=4.94 $Y=0.28
+ $X2=4.94 $Y2=0.8
r197 137 138 29.4723 $w=3.03e-07 $l=7.8e-07 $layer=LI1_cond $X=4.855 $Y=0.127
+ $X2=4.075 $Y2=0.127
r198 133 135 33.9251 $w=1.68e-07 $l=5.2e-07 $layer=LI1_cond $X=3.99 $Y=0.28
+ $X2=3.99 $Y2=0.8
r199 126 161 3.10218 $w=3.05e-07 $l=8.5e-08 $layer=LI1_cond $X=2.605 $Y=0.127
+ $X2=2.52 $Y2=0.127
r200 121 161 3.51065 $w=1.7e-07 $l=1.53e-07 $layer=LI1_cond $X=2.52 $Y=0.28
+ $X2=2.52 $Y2=0.127
r201 121 123 33.9251 $w=1.68e-07 $l=5.2e-07 $layer=LI1_cond $X=2.52 $Y=0.28
+ $X2=2.52 $Y2=0.8
r202 114 160 3.10218 $w=3.05e-07 $l=8.5e-08 $layer=LI1_cond $X=0.855 $Y=0.127
+ $X2=0.77 $Y2=0.127
r203 113 161 3.10218 $w=3.05e-07 $l=8.5e-08 $layer=LI1_cond $X=2.435 $Y=0.127
+ $X2=2.52 $Y2=0.127
r204 109 160 3.51065 $w=1.7e-07 $l=1.53e-07 $layer=LI1_cond $X=0.77 $Y=0.28
+ $X2=0.77 $Y2=0.127
r205 109 111 33.9251 $w=1.68e-07 $l=5.2e-07 $layer=LI1_cond $X=0.77 $Y=0.28
+ $X2=0.77 $Y2=0.8
r206 105 159 3.10218 $w=3.05e-07 $l=8.5e-08 $layer=LI1_cond $X=-0.095 $Y=0.127
+ $X2=-0.18 $Y2=0.127
r207 104 160 3.10218 $w=3.05e-07 $l=8.5e-08 $layer=LI1_cond $X=0.685 $Y=0.127
+ $X2=0.77 $Y2=0.127
r208 100 159 3.51065 $w=1.7e-07 $l=1.53e-07 $layer=LI1_cond $X=-0.18 $Y=0.28
+ $X2=-0.18 $Y2=0.127
r209 100 102 33.9251 $w=1.68e-07 $l=5.2e-07 $layer=LI1_cond $X=-0.18 $Y=0.28
+ $X2=-0.18 $Y2=0.8
r210 95 159 3.10218 $w=3.05e-07 $l=8.5e-08 $layer=LI1_cond $X=-0.265 $Y=0.127
+ $X2=-0.18 $Y2=0.127
r211 91 93 33.9251 $w=1.68e-07 $l=5.2e-07 $layer=LI1_cond $X=-1.04 $Y=0.28
+ $X2=-1.04 $Y2=0.8
r212 89 193 1.86 $w=1.7e-07 $l=8.5e-07 $layer=mcon $count=5 $X=5.7 $Y=0.165
+ $X2=5.7 $Y2=0.165
r213 89 173 1.86 $w=1.7e-07 $l=8.5e-07 $layer=mcon $count=5 $X=-0.959 $Y=0.165
+ $X2=-0.959 $Y2=0.165
r214 89 139 3.51065 $w=1.7e-07 $l=1.53e-07 $layer=LI1_cond $X=4.94 $Y=0.127
+ $X2=4.94 $Y2=0.28
r215 89 137 3.10218 $w=3.05e-07 $l=8.5e-08 $layer=LI1_cond $X=4.94 $Y=0.127
+ $X2=4.855 $Y2=0.127
r216 89 144 3.10218 $w=3.05e-07 $l=8.5e-08 $layer=LI1_cond $X=4.94 $Y=0.127
+ $X2=5.025 $Y2=0.127
r217 89 133 3.51065 $w=1.7e-07 $l=1.53e-07 $layer=LI1_cond $X=3.99 $Y=0.127
+ $X2=3.99 $Y2=0.28
r218 89 125 3.10218 $w=3.05e-07 $l=8.5e-08 $layer=LI1_cond $X=3.99 $Y=0.127
+ $X2=3.905 $Y2=0.127
r219 89 138 3.10218 $w=3.05e-07 $l=8.5e-08 $layer=LI1_cond $X=3.99 $Y=0.127
+ $X2=4.075 $Y2=0.127
r220 89 91 4.35274 $w=1.7e-07 $l=1.98681e-07 $layer=LI1_cond $X=-1.145 $Y=0.127
+ $X2=-1.04 $Y2=0.28
r221 89 96 3.2055 $w=3.05e-07 $l=1.9e-07 $layer=LI1_cond $X=-1.145 $Y=0.127
+ $X2=-0.955 $Y2=0.127
r222 89 143 0.566775 $w=3.03e-07 $l=1.5e-08 $layer=LI1_cond $X=5.7 $Y=0.127
+ $X2=5.715 $Y2=0.127
r223 89 144 25.5049 $w=3.03e-07 $l=6.75e-07 $layer=LI1_cond $X=5.7 $Y=0.127
+ $X2=5.025 $Y2=0.127
r224 89 125 20.4039 $w=3.03e-07 $l=5.4e-07 $layer=LI1_cond $X=3.365 $Y=0.127
+ $X2=3.905 $Y2=0.127
r225 89 126 3.0228 $w=3.03e-07 $l=8e-08 $layer=LI1_cond $X=2.685 $Y=0.127
+ $X2=2.605 $Y2=0.127
r226 89 113 16.2476 $w=3.03e-07 $l=4.3e-07 $layer=LI1_cond $X=2.005 $Y=0.127
+ $X2=2.435 $Y2=0.127
r227 89 114 17.759 $w=3.03e-07 $l=4.7e-07 $layer=LI1_cond $X=1.325 $Y=0.127
+ $X2=0.855 $Y2=0.127
r228 89 104 1.5114 $w=3.03e-07 $l=4e-08 $layer=LI1_cond $X=0.645 $Y=0.127
+ $X2=0.685 $Y2=0.127
r229 89 105 27.9609 $w=3.03e-07 $l=7.4e-07 $layer=LI1_cond $X=0.645 $Y=0.127
+ $X2=-0.095 $Y2=0.127
r230 89 95 0.52899 $w=3.03e-07 $l=1.4e-08 $layer=LI1_cond $X=-0.279 $Y=0.127
+ $X2=-0.265 $Y2=0.127
r231 89 96 25.5427 $w=3.03e-07 $l=6.76e-07 $layer=LI1_cond $X=-0.279 $Y=0.127
+ $X2=-0.955 $Y2=0.127
r232 7 151 91 $w=1.7e-07 $l=3.1225e-07 $layer=licon1_NDIFF $count=2 $X=5.66
+ $Y=0.55 $X2=5.8 $Y2=0.8
r233 6 141 91 $w=1.7e-07 $l=3.06186e-07 $layer=licon1_NDIFF $count=2 $X=4.815
+ $Y=0.55 $X2=4.94 $Y2=0.8
r234 5 135 91 $w=1.7e-07 $l=3.1225e-07 $layer=licon1_NDIFF $count=2 $X=3.85
+ $Y=0.55 $X2=3.99 $Y2=0.8
r235 4 123 91 $w=1.7e-07 $l=3.1225e-07 $layer=licon1_NDIFF $count=2 $X=2.38
+ $Y=0.55 $X2=2.52 $Y2=0.8
r236 3 111 91 $w=1.7e-07 $l=3.1225e-07 $layer=licon1_NDIFF $count=2 $X=0.63
+ $Y=0.55 $X2=0.77 $Y2=0.8
r237 2 102 91 $w=1.7e-07 $l=3.1265e-07 $layer=licon1_NDIFF $count=2 $X=-0.32
+ $Y=0.55 $X2=-0.179 $Y2=0.8
r238 1 93 91 $w=1.7e-07 $l=3.06594e-07 $layer=licon1_NDIFF $count=2 $X=-1.165
+ $Y=0.55 $X2=-1.039 $Y2=0.8
.ends

.subckt PM_SKY130_OSU_SC_18T_MS__NCGATECKA_NEW%VDD 1 2 3 4 5 61 63 70 74 80 84
+ 92 96 104 108 117 129 134 136 138 140
r109 138 140 1.40182 $w=3.05e-07 $l=3.01e-06 $layer=MET1_cond $X=2.69 $Y=6.482
+ $X2=5.7 $Y2=6.482
r110 136 138 0.319019 $w=3.05e-07 $l=6.85e-07 $layer=MET1_cond $X=2.005 $Y=6.482
+ $X2=2.69 $Y2=6.482
r111 134 136 0.319019 $w=3.05e-07 $l=6.85e-07 $layer=MET1_cond $X=1.32 $Y=6.482
+ $X2=2.005 $Y2=6.482
r112 131 134 1.06138 $w=3.05e-07 $l=2.279e-06 $layer=MET1_cond $X=-0.959
+ $Y=6.482 $X2=1.32 $Y2=6.482
r113 117 120 110.909 $w=1.68e-07 $l=1.7e-06 $layer=LI1_cond $X=5.8 $Y=4.11
+ $X2=5.8 $Y2=5.81
r114 115 129 3.51065 $w=1.7e-07 $l=1.52e-07 $layer=LI1_cond $X=5.8 $Y=6.33
+ $X2=5.8 $Y2=6.482
r115 115 120 33.9251 $w=1.68e-07 $l=5.2e-07 $layer=LI1_cond $X=5.8 $Y=6.33
+ $X2=5.8 $Y2=5.81
r116 113 140 1.86 $w=1.7e-07 $l=8.5e-07 $layer=mcon $count=5 $X=5.7 $Y=6.445
+ $X2=5.7 $Y2=6.445
r117 111 113 25.6938 $w=3.03e-07 $l=6.8e-07 $layer=LI1_cond $X=5.02 $Y=6.482
+ $X2=5.7 $Y2=6.482
r118 109 128 3.10218 $w=3.05e-07 $l=8.5e-08 $layer=LI1_cond $X=4.075 $Y=6.482
+ $X2=3.99 $Y2=6.482
r119 109 111 35.7068 $w=3.03e-07 $l=9.45e-07 $layer=LI1_cond $X=4.075 $Y=6.482
+ $X2=5.02 $Y2=6.482
r120 108 129 3.10218 $w=3.05e-07 $l=8.5e-08 $layer=LI1_cond $X=5.715 $Y=6.482
+ $X2=5.8 $Y2=6.482
r121 108 113 0.566775 $w=3.03e-07 $l=1.5e-08 $layer=LI1_cond $X=5.715 $Y=6.482
+ $X2=5.7 $Y2=6.482
r122 104 107 155.273 $w=1.68e-07 $l=2.38e-06 $layer=LI1_cond $X=3.99 $Y=3.43
+ $X2=3.99 $Y2=5.81
r123 102 128 3.51065 $w=1.7e-07 $l=1.52e-07 $layer=LI1_cond $X=3.99 $Y=6.33
+ $X2=3.99 $Y2=6.482
r124 102 107 33.9251 $w=1.68e-07 $l=5.2e-07 $layer=LI1_cond $X=3.99 $Y=6.33
+ $X2=3.99 $Y2=5.81
r125 99 101 25.6938 $w=3.03e-07 $l=6.8e-07 $layer=LI1_cond $X=2.685 $Y=6.482
+ $X2=3.365 $Y2=6.482
r126 97 126 3.10218 $w=3.05e-07 $l=8.5e-08 $layer=LI1_cond $X=2.605 $Y=6.482
+ $X2=2.52 $Y2=6.482
r127 97 99 3.0228 $w=3.03e-07 $l=8e-08 $layer=LI1_cond $X=2.605 $Y=6.482
+ $X2=2.685 $Y2=6.482
r128 96 128 3.10218 $w=3.05e-07 $l=8.5e-08 $layer=LI1_cond $X=3.905 $Y=6.482
+ $X2=3.99 $Y2=6.482
r129 96 101 20.4039 $w=3.03e-07 $l=5.4e-07 $layer=LI1_cond $X=3.905 $Y=6.482
+ $X2=3.365 $Y2=6.482
r130 92 95 155.273 $w=1.68e-07 $l=2.38e-06 $layer=LI1_cond $X=2.52 $Y=3.43
+ $X2=2.52 $Y2=5.81
r131 90 126 3.51065 $w=1.7e-07 $l=1.52e-07 $layer=LI1_cond $X=2.52 $Y=6.33
+ $X2=2.52 $Y2=6.482
r132 90 95 33.9251 $w=1.68e-07 $l=5.2e-07 $layer=LI1_cond $X=2.52 $Y=6.33
+ $X2=2.52 $Y2=5.81
r133 87 89 25.6938 $w=3.03e-07 $l=6.8e-07 $layer=LI1_cond $X=1.325 $Y=6.482
+ $X2=2.005 $Y2=6.482
r134 85 125 3.10218 $w=3.05e-07 $l=8.5e-08 $layer=LI1_cond $X=0.855 $Y=6.482
+ $X2=0.77 $Y2=6.482
r135 85 87 17.759 $w=3.03e-07 $l=4.7e-07 $layer=LI1_cond $X=0.855 $Y=6.482
+ $X2=1.325 $Y2=6.482
r136 84 126 3.10218 $w=3.05e-07 $l=8.5e-08 $layer=LI1_cond $X=2.435 $Y=6.482
+ $X2=2.52 $Y2=6.482
r137 84 89 16.2476 $w=3.03e-07 $l=4.3e-07 $layer=LI1_cond $X=2.435 $Y=6.482
+ $X2=2.005 $Y2=6.482
r138 80 83 133.091 $w=1.68e-07 $l=2.04e-06 $layer=LI1_cond $X=0.77 $Y=3.77
+ $X2=0.77 $Y2=5.81
r139 78 125 3.51065 $w=1.7e-07 $l=1.52e-07 $layer=LI1_cond $X=0.77 $Y=6.33
+ $X2=0.77 $Y2=6.482
r140 78 83 33.9251 $w=1.68e-07 $l=5.2e-07 $layer=LI1_cond $X=0.77 $Y=6.33
+ $X2=0.77 $Y2=5.81
r141 75 124 3.10218 $w=3.05e-07 $l=8.5e-08 $layer=LI1_cond $X=-0.165 $Y=6.482
+ $X2=-0.25 $Y2=6.482
r142 75 77 30.6059 $w=3.03e-07 $l=8.1e-07 $layer=LI1_cond $X=-0.165 $Y=6.482
+ $X2=0.645 $Y2=6.482
r143 74 125 3.10218 $w=3.05e-07 $l=8.5e-08 $layer=LI1_cond $X=0.685 $Y=6.482
+ $X2=0.77 $Y2=6.482
r144 74 77 1.5114 $w=3.03e-07 $l=4e-08 $layer=LI1_cond $X=0.685 $Y=6.482
+ $X2=0.645 $Y2=6.482
r145 70 73 110.909 $w=1.68e-07 $l=1.7e-06 $layer=LI1_cond $X=-0.25 $Y=4.11
+ $X2=-0.25 $Y2=5.81
r146 68 124 3.51065 $w=1.7e-07 $l=1.52e-07 $layer=LI1_cond $X=-0.25 $Y=6.33
+ $X2=-0.25 $Y2=6.482
r147 68 73 33.9251 $w=1.68e-07 $l=5.2e-07 $layer=LI1_cond $X=-0.25 $Y=6.33
+ $X2=-0.25 $Y2=5.81
r148 65 131 1.86 $w=1.7e-07 $l=8.5e-07 $layer=mcon $count=5 $X=-0.959 $Y=6.445
+ $X2=-0.959 $Y2=6.445
r149 63 124 3.10218 $w=3.05e-07 $l=8.5e-08 $layer=LI1_cond $X=-0.335 $Y=6.482
+ $X2=-0.25 $Y2=6.482
r150 63 65 23.5779 $w=3.03e-07 $l=6.24e-07 $layer=LI1_cond $X=-0.335 $Y=6.482
+ $X2=-0.959 $Y2=6.482
r151 61 113 182 $w=1.7e-07 $l=2.43824e-07 $layer=licon1_NTAP_notbjt $count=1
+ $X=5.495 $Y=6.33 $X2=5.7 $Y2=6.415
r152 61 111 182 $w=1.7e-07 $l=2.43824e-07 $layer=licon1_NTAP_notbjt $count=1
+ $X=4.815 $Y=6.33 $X2=5.02 $Y2=6.415
r153 61 128 182 $w=1.7e-07 $l=2.43824e-07 $layer=licon1_NTAP_notbjt $count=1
+ $X=3.84 $Y=6.33 $X2=4.045 $Y2=6.415
r154 61 101 182 $w=1.7e-07 $l=2.43824e-07 $layer=licon1_NTAP_notbjt $count=1
+ $X=3.16 $Y=6.33 $X2=3.365 $Y2=6.415
r155 61 99 182 $w=1.7e-07 $l=2.43824e-07 $layer=licon1_NTAP_notbjt $count=1
+ $X=2.48 $Y=6.33 $X2=2.685 $Y2=6.415
r156 61 89 182 $w=1.7e-07 $l=2.43824e-07 $layer=licon1_NTAP_notbjt $count=1
+ $X=1.8 $Y=6.33 $X2=2.005 $Y2=6.415
r157 61 87 182 $w=1.7e-07 $l=2.43824e-07 $layer=licon1_NTAP_notbjt $count=1
+ $X=1.12 $Y=6.33 $X2=1.325 $Y2=6.415
r158 61 77 182 $w=1.7e-07 $l=2.43824e-07 $layer=licon1_NTAP_notbjt $count=1
+ $X=0.44 $Y=6.33 $X2=0.645 $Y2=6.415
r159 61 124 182 $w=1.7e-07 $l=2.44839e-07 $layer=licon1_NTAP_notbjt $count=1
+ $X=-0.485 $Y=6.33 $X2=-0.279 $Y2=6.415
r160 61 65 182 $w=1.7e-07 $l=2.44839e-07 $layer=licon1_NTAP_notbjt $count=1
+ $X=-1.165 $Y=6.33 $X2=-0.959 $Y2=6.415
r161 5 120 200 $w=1.7e-07 $l=2.81913e-06 $layer=licon1_PDIFF $count=3 $X=5.66
+ $Y=3.06 $X2=5.8 $Y2=5.81
r162 5 117 200 $w=1.7e-07 $l=1.11781e-06 $layer=licon1_PDIFF $count=3 $X=5.66
+ $Y=3.06 $X2=5.8 $Y2=4.11
r163 4 107 150 $w=1.7e-07 $l=2.81913e-06 $layer=licon1_PDIFF $count=4 $X=3.85
+ $Y=3.06 $X2=3.99 $Y2=5.81
r164 4 104 150 $w=1.7e-07 $l=4.34396e-07 $layer=licon1_PDIFF $count=4 $X=3.85
+ $Y=3.06 $X2=3.99 $Y2=3.43
r165 3 95 150 $w=1.7e-07 $l=2.81913e-06 $layer=licon1_PDIFF $count=4 $X=2.38
+ $Y=3.06 $X2=2.52 $Y2=5.81
r166 3 92 150 $w=1.7e-07 $l=4.34396e-07 $layer=licon1_PDIFF $count=4 $X=2.38
+ $Y=3.06 $X2=2.52 $Y2=3.43
r167 2 83 171.429 $w=1.7e-07 $l=2.81913e-06 $layer=licon1_PDIFF $count=3 $X=0.63
+ $Y=3.06 $X2=0.77 $Y2=5.81
r168 2 80 171.429 $w=1.7e-07 $l=7.76853e-07 $layer=licon1_PDIFF $count=3 $X=0.63
+ $Y=3.06 $X2=0.77 $Y2=3.77
r169 1 73 200 $w=1.7e-07 $l=2.81962e-06 $layer=licon1_PDIFF $count=3 $X=-0.39
+ $Y=3.06 $X2=-0.249 $Y2=5.81
r170 1 70 200 $w=1.7e-07 $l=1.11828e-06 $layer=licon1_PDIFF $count=3 $X=-0.39
+ $Y=3.06 $X2=-0.249 $Y2=4.11
.ends

.subckt PM_SKY130_OSU_SC_18T_MS__NCGATECKA_NEW%SE 3 7 10 13 19 22 25
r50 22 25 0.000586854 $w=2.13e-07 $l=1e-09 $layer=MET1_cond $X=-0.65 $Y=2.935
+ $X2=-0.649 $Y2=2.935
r51 19 25 9.3 $w=1.7e-07 $l=1.7e-07 $layer=mcon $count=1 $X=-0.649 $Y=2.935
+ $X2=-0.649 $Y2=2.935
r52 17 19 51.2139 $w=1.68e-07 $l=7.85e-07 $layer=LI1_cond $X=-0.65 $Y=2.15
+ $X2=-0.65 $Y2=2.935
r53 13 17 6.81649 $w=1.7e-07 $l=1.20208e-07 $layer=LI1_cond $X=-0.735 $Y=2.065
+ $X2=-0.65 $Y2=2.15
r54 13 15 9.72086 $w=1.68e-07 $l=1.49e-07 $layer=LI1_cond $X=-0.735 $Y=2.065
+ $X2=-0.884 $Y2=2.065
r55 10 15 145.28 $w=1.7e-07 $l=1.7e-07 $layer=licon1_POLY $count=1 $X=-0.884
+ $Y=2.065 $X2=-0.884 $Y2=2.065
r56 10 12 48.4159 $w=2.7e-07 $l=1.65e-07 $layer=POLY_cond $X=-0.885 $Y=2.065
+ $X2=-0.885 $Y2=2.23
r57 10 11 48.4159 $w=2.7e-07 $l=1.65e-07 $layer=POLY_cond $X=-0.885 $Y=2.065
+ $X2=-0.885 $Y2=1.9
r58 7 12 1194.74 $w=1.5e-07 $l=2.33e-06 $layer=POLY_cond $X=-0.825 $Y=4.56
+ $X2=-0.825 $Y2=2.23
r59 3 11 435.851 $w=1.5e-07 $l=8.5e-07 $layer=POLY_cond $X=-0.825 $Y=1.05
+ $X2=-0.825 $Y2=1.9
.ends

.subckt PM_SKY130_OSU_SC_18T_MS__NCGATECKA_NEW%E 3 7 10 14 22 24
r47 22 24 0.000584112 $w=2.14e-07 $l=1e-09 $layer=MET1_cond $X=-0.305 $Y=3.305
+ $X2=-0.304 $Y2=3.305
r48 20 22 0.00233645 $w=2.14e-07 $l=4e-09 $layer=MET1_cond $X=-0.309 $Y=3.305
+ $X2=-0.305 $Y2=3.305
r49 17 20 9.3 $w=1.7e-07 $l=1.7e-07 $layer=mcon $count=1 $X=-0.309 $Y=3.305
+ $X2=-0.309 $Y2=3.305
r50 14 17 37.5134 $w=1.68e-07 $l=5.75e-07 $layer=LI1_cond $X=-0.31 $Y=2.73
+ $X2=-0.31 $Y2=3.305
r51 10 14 145.28 $w=1.7e-07 $l=1.7e-07 $layer=licon1_POLY $count=1 $X=-0.309
+ $Y=2.73 $X2=-0.309 $Y2=2.73
r52 10 12 46.6671 $w=3.65e-07 $l=1.65e-07 $layer=POLY_cond $X=-0.357 $Y=2.73
+ $X2=-0.357 $Y2=2.895
r53 10 11 46.6671 $w=3.65e-07 $l=1.65e-07 $layer=POLY_cond $X=-0.357 $Y=2.73
+ $X2=-0.357 $Y2=2.565
r54 7 11 776.84 $w=1.5e-07 $l=1.515e-06 $layer=POLY_cond $X=-0.395 $Y=1.05
+ $X2=-0.395 $Y2=2.565
r55 3 12 853.755 $w=1.5e-07 $l=1.665e-06 $layer=POLY_cond $X=-0.465 $Y=4.56
+ $X2=-0.465 $Y2=2.895
.ends

.subckt PM_SKY130_OSU_SC_18T_MS__NCGATECKA_NEW%A_86_332# 1 3 13 16 18 19 21 22
+ 23 24 25 27 28 30 31 32 35 39
r83 39 41 80.671 $w=3.38e-07 $l=2.38e-06 $layer=LI1_cond $X=1.645 $Y=3.43
+ $X2=1.645 $Y2=5.81
r84 37 39 6.27065 $w=3.38e-07 $l=1.85e-07 $layer=LI1_cond $X=1.645 $Y=3.245
+ $X2=1.645 $Y2=3.43
r85 33 35 17.6256 $w=3.38e-07 $l=5.2e-07 $layer=LI1_cond $X=1.645 $Y=1.32
+ $X2=1.645 $Y2=0.8
r86 31 33 7.85115 $w=1.7e-07 $l=2.08207e-07 $layer=LI1_cond $X=1.475 $Y=1.405
+ $X2=1.645 $Y2=1.32
r87 31 32 18.2674 $w=1.68e-07 $l=2.8e-07 $layer=LI1_cond $X=1.475 $Y=1.405
+ $X2=1.195 $Y2=1.405
r88 29 32 6.81649 $w=1.7e-07 $l=1.20208e-07 $layer=LI1_cond $X=1.11 $Y=1.49
+ $X2=1.195 $Y2=1.405
r89 29 30 16.3102 $w=1.68e-07 $l=2.5e-07 $layer=LI1_cond $X=1.11 $Y=1.49
+ $X2=1.11 $Y2=1.74
r90 27 37 7.85115 $w=1.7e-07 $l=2.08207e-07 $layer=LI1_cond $X=1.475 $Y=3.16
+ $X2=1.645 $Y2=3.245
r91 27 28 53.8235 $w=1.68e-07 $l=8.25e-07 $layer=LI1_cond $X=1.475 $Y=3.16
+ $X2=0.65 $Y2=3.16
r92 26 44 3.40825 $w=1.7e-07 $l=1.03078e-07 $layer=LI1_cond $X=0.65 $Y=1.825
+ $X2=0.565 $Y2=1.785
r93 25 30 6.81649 $w=1.7e-07 $l=1.20208e-07 $layer=LI1_cond $X=1.025 $Y=1.825
+ $X2=1.11 $Y2=1.74
r94 25 26 24.4652 $w=1.68e-07 $l=3.75e-07 $layer=LI1_cond $X=1.025 $Y=1.825
+ $X2=0.65 $Y2=1.825
r95 24 28 6.81649 $w=1.7e-07 $l=1.20208e-07 $layer=LI1_cond $X=0.565 $Y=3.075
+ $X2=0.65 $Y2=3.16
r96 23 44 3.40825 $w=1.7e-07 $l=1.25e-07 $layer=LI1_cond $X=0.565 $Y=1.91
+ $X2=0.565 $Y2=1.785
r97 23 24 76.0053 $w=1.68e-07 $l=1.165e-06 $layer=LI1_cond $X=0.565 $Y=1.91
+ $X2=0.565 $Y2=3.075
r98 21 22 56.3681 $w=2e-07 $l=1.7e-07 $layer=POLY_cond $X=0.53 $Y=2.78 $X2=0.53
+ $Y2=2.95
r99 20 21 405.085 $w=1.5e-07 $l=7.9e-07 $layer=POLY_cond $X=0.505 $Y=1.99
+ $X2=0.505 $Y2=2.78
r100 18 44 145.28 $w=1.7e-07 $l=1.7e-07 $layer=licon1_POLY $count=1 $X=0.565
+ $Y=1.825 $X2=0.565 $Y2=1.825
r101 18 20 48.4159 $w=2.7e-07 $l=1.65e-07 $layer=POLY_cond $X=0.565 $Y=1.825
+ $X2=0.565 $Y2=1.99
r102 18 19 48.4159 $w=2.7e-07 $l=1.65e-07 $layer=POLY_cond $X=0.565 $Y=1.825
+ $X2=0.565 $Y2=1.66
r103 16 22 517.347 $w=1.5e-07 $l=1.61e-06 $layer=POLY_cond $X=0.555 $Y=4.56
+ $X2=0.555 $Y2=2.95
r104 13 19 196.013 $w=1.5e-07 $l=6.1e-07 $layer=POLY_cond $X=0.555 $Y=1.05
+ $X2=0.555 $Y2=1.66
r105 3 41 150 $w=1.7e-07 $l=2.86029e-06 $layer=licon1_PDIFF $count=4 $X=1.42
+ $Y=3.06 $X2=1.645 $Y2=5.81
r106 3 39 150 $w=1.7e-07 $l=4.69201e-07 $layer=licon1_PDIFF $count=4 $X=1.42
+ $Y=3.06 $X2=1.645 $Y2=3.43
r107 1 35 91 $w=1.7e-07 $l=3.44601e-07 $layer=licon1_NDIFF $count=2 $X=1.42
+ $Y=0.55 $X2=1.645 $Y2=0.8
.ends

.subckt PM_SKY130_OSU_SC_18T_MS__NCGATECKA_NEW%A_N233_612# 1 3 11 15 18 22 30 36
+ 41 42 44 45 51 53
c104 15 0 1.64001e-19 $X=0.985 $Y=4.56
c105 11 0 1.38221e-19 $X=0.985 $Y=1.05
r106 46 53 0.0529306 $w=1.7e-07 $l=8.5e-08 $layer=MET1_cond $X=-0.525 $Y=2.565
+ $X2=-0.61 $Y2=2.565
r107 45 55 0.0903352 $w=2.14e-07 $l=1.47479e-07 $layer=MET1_cond $X=0.78
+ $Y=2.565 $X2=0.925 $Y2=2.57
r108 45 46 1.25656 $w=1.7e-07 $l=1.305e-06 $layer=MET1_cond $X=0.78 $Y=2.565
+ $X2=-0.525 $Y2=2.565
r109 44 53 0.0137558 $w=1.7e-07 $l=8.5e-08 $layer=MET1_cond $X=-0.61 $Y=2.48
+ $X2=-0.61 $Y2=2.565
r110 43 51 0.0804477 $w=2.9e-07 $l=1.15e-07 $layer=MET1_cond $X=-0.61 $Y=1.57
+ $X2=-0.61 $Y2=1.455
r111 43 44 0.876223 $w=1.7e-07 $l=9.1e-07 $layer=MET1_cond $X=-0.61 $Y=1.57
+ $X2=-0.61 $Y2=2.48
r112 42 48 0.102734 $w=2.3e-07 $l=1.44e-07 $layer=MET1_cond $X=-0.895 $Y=2.565
+ $X2=-1.039 $Y2=2.565
r113 41 53 0.0529306 $w=1.7e-07 $l=8.5e-08 $layer=MET1_cond $X=-0.695 $Y=2.565
+ $X2=-0.61 $Y2=2.565
r114 41 42 0.192576 $w=1.7e-07 $l=2e-07 $layer=MET1_cond $X=-0.695 $Y=2.565
+ $X2=-0.895 $Y2=2.565
r115 39 55 9.3 $w=1.7e-07 $l=1.7e-07 $layer=mcon $count=1 $X=0.925 $Y=2.57
+ $X2=0.925 $Y2=2.57
r116 36 39 11.0909 $w=1.68e-07 $l=1.7e-07 $layer=LI1_cond $X=0.925 $Y=2.4
+ $X2=0.925 $Y2=2.57
r117 33 51 9.3 $w=1.7e-07 $l=1.7e-07 $layer=mcon $count=1 $X=-0.609 $Y=1.455
+ $X2=-0.609 $Y2=1.455
r118 30 33 42.7326 $w=1.68e-07 $l=6.55e-07 $layer=LI1_cond $X=-0.61 $Y=0.8
+ $X2=-0.61 $Y2=1.455
r119 25 27 155.273 $w=1.68e-07 $l=2.38e-06 $layer=LI1_cond $X=-1.04 $Y=3.43
+ $X2=-1.04 $Y2=5.81
r120 22 48 9.3 $w=1.7e-07 $l=1.7e-07 $layer=mcon $count=1 $X=-1.039 $Y=2.565
+ $X2=-1.039 $Y2=2.565
r121 22 25 56.4332 $w=1.68e-07 $l=8.65e-07 $layer=LI1_cond $X=-1.04 $Y=2.565
+ $X2=-1.04 $Y2=3.43
r122 18 36 145.28 $w=1.7e-07 $l=1.7e-07 $layer=licon1_POLY $count=1 $X=0.925
+ $Y=2.4 $X2=0.925 $Y2=2.4
r123 18 20 48.4159 $w=2.7e-07 $l=1.65e-07 $layer=POLY_cond $X=0.925 $Y=2.4
+ $X2=0.925 $Y2=2.565
r124 18 19 48.4159 $w=2.7e-07 $l=1.65e-07 $layer=POLY_cond $X=0.925 $Y=2.4
+ $X2=0.925 $Y2=2.235
r125 15 20 1022.97 $w=1.5e-07 $l=1.995e-06 $layer=POLY_cond $X=0.985 $Y=4.56
+ $X2=0.985 $Y2=2.565
r126 11 19 607.628 $w=1.5e-07 $l=1.185e-06 $layer=POLY_cond $X=0.985 $Y=1.05
+ $X2=0.985 $Y2=2.235
r127 3 27 150 $w=1.7e-07 $l=2.81229e-06 $layer=licon1_PDIFF $count=4 $X=-1.165
+ $Y=3.06 $X2=-1.039 $Y2=5.81
r128 3 25 150 $w=1.7e-07 $l=4.28392e-07 $layer=licon1_PDIFF $count=4 $X=-1.165
+ $Y=3.06 $X2=-1.039 $Y2=3.43
r129 1 30 91 $w=1.7e-07 $l=3.1265e-07 $layer=licon1_NDIFF $count=2 $X=-0.75
+ $Y=0.55 $X2=-0.609 $Y2=0.8
.ends

.subckt PM_SKY130_OSU_SC_18T_MS__NCGATECKA_NEW%A_254_515# 1 3 11 15 17 21 22 25
+ 26 27 32 35 38 43 47 49 52 56
c123 52 0 1.86741e-19 $X=3.22 $Y=2.195
c124 47 0 9.95038e-20 $X=1.485 $Y=2.74
c125 27 0 1.38221e-19 $X=1.57 $Y=1.825
c126 25 0 1.64001e-19 $X=1.485 $Y=2.655
c127 17 0 1.47633e-20 $X=1.405 $Y=2.74
r128 54 56 17.615 $w=1.68e-07 $l=2.7e-07 $layer=LI1_cond $X=2.95 $Y=3.16
+ $X2=3.22 $Y2=3.16
r129 50 52 17.615 $w=1.68e-07 $l=2.7e-07 $layer=LI1_cond $X=2.95 $Y=2.195
+ $X2=3.22 $Y2=2.195
r130 45 47 5.21925 $w=1.68e-07 $l=8e-08 $layer=LI1_cond $X=1.405 $Y=2.74
+ $X2=1.485 $Y2=2.74
r131 43 56 0.716491 $w=1.7e-07 $l=8.5e-08 $layer=LI1_cond $X=3.22 $Y=3.075
+ $X2=3.22 $Y2=3.16
r132 42 52 0.716491 $w=1.7e-07 $l=8.5e-08 $layer=LI1_cond $X=3.22 $Y=2.28
+ $X2=3.22 $Y2=2.195
r133 42 43 51.8663 $w=1.68e-07 $l=7.95e-07 $layer=LI1_cond $X=3.22 $Y=2.28
+ $X2=3.22 $Y2=3.075
r134 38 40 155.273 $w=1.68e-07 $l=2.38e-06 $layer=LI1_cond $X=2.95 $Y=3.43
+ $X2=2.95 $Y2=5.81
r135 36 54 0.716491 $w=1.7e-07 $l=8.5e-08 $layer=LI1_cond $X=2.95 $Y=3.245
+ $X2=2.95 $Y2=3.16
r136 36 38 12.0695 $w=1.68e-07 $l=1.85e-07 $layer=LI1_cond $X=2.95 $Y=3.245
+ $X2=2.95 $Y2=3.43
r137 35 50 0.716491 $w=1.7e-07 $l=8.5e-08 $layer=LI1_cond $X=2.95 $Y=2.11
+ $X2=2.95 $Y2=2.195
r138 34 49 5.16603 $w=1.7e-07 $l=8.5e-08 $layer=LI1_cond $X=2.95 $Y=1.91
+ $X2=2.95 $Y2=1.825
r139 34 35 13.0481 $w=1.68e-07 $l=2e-07 $layer=LI1_cond $X=2.95 $Y=1.91 $X2=2.95
+ $Y2=2.11
r140 30 49 5.16603 $w=1.7e-07 $l=8.5e-08 $layer=LI1_cond $X=2.95 $Y=1.74
+ $X2=2.95 $Y2=1.825
r141 30 32 61.3262 $w=1.68e-07 $l=9.4e-07 $layer=LI1_cond $X=2.95 $Y=1.74
+ $X2=2.95 $Y2=0.8
r142 27 29 20.5508 $w=1.68e-07 $l=3.15e-07 $layer=LI1_cond $X=1.57 $Y=1.825
+ $X2=1.885 $Y2=1.825
r143 26 49 1.34256 $w=1.7e-07 $l=8.5e-08 $layer=LI1_cond $X=2.865 $Y=1.825
+ $X2=2.95 $Y2=1.825
r144 26 29 63.9358 $w=1.68e-07 $l=9.8e-07 $layer=LI1_cond $X=2.865 $Y=1.825
+ $X2=1.885 $Y2=1.825
r145 25 47 0.716491 $w=1.7e-07 $l=8.5e-08 $layer=LI1_cond $X=1.485 $Y=2.655
+ $X2=1.485 $Y2=2.74
r146 24 27 6.81649 $w=1.7e-07 $l=1.20208e-07 $layer=LI1_cond $X=1.485 $Y=1.91
+ $X2=1.57 $Y2=1.825
r147 24 25 48.6043 $w=1.68e-07 $l=7.45e-07 $layer=LI1_cond $X=1.485 $Y=1.91
+ $X2=1.485 $Y2=2.655
r148 21 29 145.28 $w=1.7e-07 $l=1.7e-07 $layer=licon1_POLY $count=1 $X=1.885
+ $Y=1.825 $X2=1.885 $Y2=1.825
r149 21 22 48.4159 $w=2.7e-07 $l=1.65e-07 $layer=POLY_cond $X=1.885 $Y=1.825
+ $X2=1.885 $Y2=1.66
r150 17 45 145.28 $w=1.7e-07 $l=1.7e-07 $layer=licon1_POLY $count=1 $X=1.405
+ $Y=2.74 $X2=1.405 $Y2=2.74
r151 17 19 48.4159 $w=2.7e-07 $l=1.65e-07 $layer=POLY_cond $X=1.405 $Y=2.74
+ $X2=1.405 $Y2=2.905
r152 15 22 196.013 $w=1.5e-07 $l=6.1e-07 $layer=POLY_cond $X=1.945 $Y=1.05
+ $X2=1.945 $Y2=1.66
r153 11 19 848.628 $w=1.5e-07 $l=1.655e-06 $layer=POLY_cond $X=1.345 $Y=4.56
+ $X2=1.345 $Y2=2.905
r154 3 40 150 $w=1.7e-07 $l=2.81913e-06 $layer=licon1_PDIFF $count=4 $X=2.81
+ $Y=3.06 $X2=2.95 $Y2=5.81
r155 3 38 150 $w=1.7e-07 $l=4.34396e-07 $layer=licon1_PDIFF $count=4 $X=2.81
+ $Y=3.06 $X2=2.95 $Y2=3.43
r156 1 32 91 $w=1.7e-07 $l=3.1225e-07 $layer=licon1_NDIFF $count=2 $X=2.81
+ $Y=0.55 $X2=2.95 $Y2=0.8
.ends

.subckt PM_SKY130_OSU_SC_18T_MS__NCGATECKA_NEW%CK 3 5 6 11 15 16 18 21 23 24 26
+ 27 31 37 42 43 48
c119 43 0 1.47633e-20 $X=2.03 $Y=2.565
c120 23 0 1.2087e-19 $X=1.885 $Y=2.74
c121 5 0 9.95038e-20 $X=1.75 $Y=2.275
r122 43 45 0.103375 $w=2.3e-07 $l=1.45e-07 $layer=MET1_cond $X=2.03 $Y=2.565
+ $X2=1.885 $Y2=2.565
r123 42 48 0.0881594 $w=2.26e-07 $l=1.45e-07 $layer=MET1_cond $X=2.735 $Y=2.565
+ $X2=2.88 $Y2=2.565
r124 42 43 0.678832 $w=1.7e-07 $l=7.05e-07 $layer=MET1_cond $X=2.735 $Y=2.565
+ $X2=2.03 $Y2=2.565
r125 37 48 9.3 $w=1.7e-07 $l=1.7e-07 $layer=mcon $count=1 $X=2.88 $Y=2.565
+ $X2=2.88 $Y2=2.565
r126 37 40 11.4171 $w=1.68e-07 $l=1.75e-07 $layer=LI1_cond $X=2.88 $Y=2.565
+ $X2=2.88 $Y2=2.74
r127 31 45 9.3 $w=1.7e-07 $l=1.7e-07 $layer=mcon $count=1 $X=1.885 $Y=2.565
+ $X2=1.885 $Y2=2.565
r128 31 34 11.4171 $w=1.68e-07 $l=1.75e-07 $layer=LI1_cond $X=1.885 $Y=2.565
+ $X2=1.885 $Y2=2.74
r129 29 40 145.28 $w=1.7e-07 $l=1.7e-07 $layer=licon1_POLY $count=1 $X=2.88
+ $Y=2.74 $X2=2.88 $Y2=2.74
r130 26 27 48.5235 $w=2.05e-07 $l=1.5e-07 $layer=POLY_cond $X=2.762 $Y=1.64
+ $X2=2.762 $Y2=1.79
r131 23 34 145.28 $w=1.7e-07 $l=1.7e-07 $layer=licon1_POLY $count=1 $X=1.885
+ $Y=2.74 $X2=1.885 $Y2=2.74
r132 23 25 48.4159 $w=2.7e-07 $l=1.65e-07 $layer=POLY_cond $X=1.885 $Y=2.74
+ $X2=1.885 $Y2=2.905
r133 23 24 48.4159 $w=2.7e-07 $l=1.65e-07 $layer=POLY_cond $X=1.885 $Y=2.74
+ $X2=1.885 $Y2=2.575
r134 21 29 38.571 $w=3.25e-07 $l=1.87029e-07 $layer=POLY_cond $X=2.79 $Y=2.575
+ $X2=2.837 $Y2=2.74
r135 21 27 402.521 $w=1.5e-07 $l=7.85e-07 $layer=POLY_cond $X=2.79 $Y=2.575
+ $X2=2.79 $Y2=1.79
r136 16 29 38.571 $w=3.25e-07 $l=2.09893e-07 $layer=POLY_cond $X=2.735 $Y=2.905
+ $X2=2.837 $Y2=2.74
r137 16 18 848.628 $w=1.5e-07 $l=1.655e-06 $layer=POLY_cond $X=2.735 $Y=2.905
+ $X2=2.735 $Y2=4.56
r138 15 26 189.587 $w=1.5e-07 $l=5.9e-07 $layer=POLY_cond $X=2.735 $Y=1.05
+ $X2=2.735 $Y2=1.64
r139 11 25 848.628 $w=1.5e-07 $l=1.655e-06 $layer=POLY_cond $X=1.945 $Y=4.56
+ $X2=1.945 $Y2=2.905
r140 7 24 115.372 $w=1.5e-07 $l=2.25e-07 $layer=POLY_cond $X=1.825 $Y=2.35
+ $X2=1.825 $Y2=2.575
r141 5 7 26.9307 $w=1.5e-07 $l=1.06066e-07 $layer=POLY_cond $X=1.75 $Y=2.275
+ $X2=1.825 $Y2=2.35
r142 5 6 169.213 $w=1.5e-07 $l=3.3e-07 $layer=POLY_cond $X=1.75 $Y=2.275
+ $X2=1.42 $Y2=2.275
r143 1 6 26.9307 $w=1.5e-07 $l=1.06066e-07 $layer=POLY_cond $X=1.345 $Y=2.2
+ $X2=1.42 $Y2=2.275
r144 1 3 589.681 $w=1.5e-07 $l=1.15e-06 $layer=POLY_cond $X=1.345 $Y=2.2
+ $X2=1.345 $Y2=1.05
.ends

.subckt PM_SKY130_OSU_SC_18T_MS__NCGATECKA_NEW%A_43_110# 1 3 11 15 23 26 28 32
+ 33 35 36 37 38 42 45 49 54 59 65 68 73 74 78 81 83
c173 81 0 1.2087e-19 $X=2.22 $Y=2.195
c174 74 0 1.86741e-19 $X=2.515 $Y=2.195
c175 37 0 8.77106e-20 $X=3.75 $Y=2.83
c176 32 0 2.20611e-19 $X=3.66 $Y=2.195
r177 80 81 0.115467 $w=2.3e-07 $l=1.45e-07 $layer=MET1_cond $X=2.365 $Y=2.195
+ $X2=2.22 $Y2=2.195
r178 78 81 2.2896 $w=1.4e-07 $l=1.85e-06 $layer=MET1_cond $X=0.37 $Y=2.175
+ $X2=2.22 $Y2=2.175
r179 76 78 0.115467 $w=2.3e-07 $l=1.45e-07 $layer=MET1_cond $X=0.225 $Y=2.195
+ $X2=0.37 $Y2=2.195
r180 74 80 0.118675 $w=2.3e-07 $l=1.5e-07 $layer=MET1_cond $X=2.515 $Y=2.195
+ $X2=2.365 $Y2=2.195
r181 73 83 0.115467 $w=2.3e-07 $l=1.45e-07 $layer=MET1_cond $X=3.515 $Y=2.195
+ $X2=3.66 $Y2=2.195
r182 73 74 1.23762 $w=1.4e-07 $l=1e-06 $layer=MET1_cond $X=3.515 $Y=2.195
+ $X2=2.515 $Y2=2.195
r183 68 70 8.33135 $w=2.83e-07 $l=1.6e-07 $layer=LI1_cond $X=0.282 $Y=3.77
+ $X2=0.282 $Y2=3.93
r184 68 69 12.1728 $w=2.83e-07 $l=2.55e-07 $layer=LI1_cond $X=0.282 $Y=3.77
+ $X2=0.282 $Y2=3.515
r185 63 65 7.50267 $w=1.68e-07 $l=1.15e-07 $layer=LI1_cond $X=0.225 $Y=1.37
+ $X2=0.34 $Y2=1.37
r186 59 83 9.3 $w=1.7e-07 $l=1.7e-07 $layer=mcon $count=1 $X=3.66 $Y=2.195
+ $X2=3.66 $Y2=2.195
r187 54 80 9.3 $w=1.7e-07 $l=1.7e-07 $layer=mcon $count=1 $X=2.365 $Y=2.195
+ $X2=2.365 $Y2=2.195
r188 49 51 110.909 $w=1.68e-07 $l=1.7e-06 $layer=LI1_cond $X=0.34 $Y=4.11
+ $X2=0.34 $Y2=5.81
r189 49 70 11.7433 $w=1.68e-07 $l=1.8e-07 $layer=LI1_cond $X=0.34 $Y=4.11
+ $X2=0.34 $Y2=3.93
r190 43 65 0.716491 $w=1.7e-07 $l=8.5e-08 $layer=LI1_cond $X=0.34 $Y=1.285
+ $X2=0.34 $Y2=1.37
r191 43 45 31.6417 $w=1.68e-07 $l=4.85e-07 $layer=LI1_cond $X=0.34 $Y=1.285
+ $X2=0.34 $Y2=0.8
r192 42 76 9.3 $w=1.7e-07 $l=1.7e-07 $layer=mcon $count=1 $X=0.225 $Y=2.195
+ $X2=0.225 $Y2=2.195
r193 42 69 86.1176 $w=1.68e-07 $l=1.32e-06 $layer=LI1_cond $X=0.225 $Y=2.195
+ $X2=0.225 $Y2=3.515
r194 39 63 0.716491 $w=1.7e-07 $l=8.5e-08 $layer=LI1_cond $X=0.225 $Y=1.455
+ $X2=0.225 $Y2=1.37
r195 39 42 48.2781 $w=1.68e-07 $l=7.4e-07 $layer=LI1_cond $X=0.225 $Y=1.455
+ $X2=0.225 $Y2=2.195
r196 37 38 49.7366 $w=2e-07 $l=1.5e-07 $layer=POLY_cond $X=3.75 $Y=2.83 $X2=3.75
+ $Y2=2.98
r197 35 36 49.7366 $w=2e-07 $l=1.5e-07 $layer=POLY_cond $X=3.75 $Y=1.625
+ $X2=3.75 $Y2=1.775
r198 34 37 241 $w=1.5e-07 $l=4.7e-07 $layer=POLY_cond $X=3.725 $Y=2.36 $X2=3.725
+ $Y2=2.83
r199 33 36 130.755 $w=1.5e-07 $l=2.55e-07 $layer=POLY_cond $X=3.725 $Y=2.03
+ $X2=3.725 $Y2=1.775
r200 32 59 145.28 $w=1.7e-07 $l=1.7e-07 $layer=licon1_POLY $count=1 $X=3.66
+ $Y=2.195 $X2=3.66 $Y2=2.195
r201 32 34 48.2986 $w=2.75e-07 $l=1.65e-07 $layer=POLY_cond $X=3.662 $Y=2.195
+ $X2=3.662 $Y2=2.36
r202 32 33 48.2986 $w=2.75e-07 $l=1.65e-07 $layer=POLY_cond $X=3.662 $Y=2.195
+ $X2=3.662 $Y2=2.03
r203 28 54 145.28 $w=1.7e-07 $l=1.7e-07 $layer=licon1_POLY $count=1 $X=2.365
+ $Y=2.195 $X2=2.365 $Y2=2.195
r204 28 30 48.4159 $w=2.7e-07 $l=1.65e-07 $layer=POLY_cond $X=2.365 $Y=2.195
+ $X2=2.365 $Y2=2.36
r205 28 29 48.4159 $w=2.7e-07 $l=1.65e-07 $layer=POLY_cond $X=2.365 $Y=2.195
+ $X2=2.365 $Y2=2.03
r206 26 38 507.707 $w=1.5e-07 $l=1.58e-06 $layer=POLY_cond $X=3.775 $Y=4.56
+ $X2=3.775 $Y2=2.98
r207 23 35 184.767 $w=1.5e-07 $l=5.75e-07 $layer=POLY_cond $X=3.775 $Y=1.05
+ $X2=3.775 $Y2=1.625
r208 15 30 1128.09 $w=1.5e-07 $l=2.2e-06 $layer=POLY_cond $X=2.305 $Y=4.56
+ $X2=2.305 $Y2=2.36
r209 11 29 502.511 $w=1.5e-07 $l=9.8e-07 $layer=POLY_cond $X=2.305 $Y=1.05
+ $X2=2.305 $Y2=2.03
r210 3 51 200 $w=1.7e-07 $l=2.81181e-06 $layer=licon1_PDIFF $count=3 $X=0.215
+ $Y=3.06 $X2=0.34 $Y2=5.81
r211 3 49 200 $w=1.7e-07 $l=1.11074e-06 $layer=licon1_PDIFF $count=3 $X=0.215
+ $Y=3.06 $X2=0.34 $Y2=4.11
r212 3 68 600 $w=1.7e-07 $l=7.69968e-07 $layer=licon1_PDIFF $count=1 $X=0.215
+ $Y=3.06 $X2=0.34 $Y2=3.77
r213 1 45 91 $w=1.7e-07 $l=3.06186e-07 $layer=licon1_NDIFF $count=2 $X=0.215
+ $Y=0.55 $X2=0.34 $Y2=0.8
.ends

.subckt PM_SKY130_OSU_SC_18T_MS__NCGATECKA_NEW%Q 1 3 11 15 18 23 27 33 34 35 36
+ 40 42
c82 42 0 8.77106e-20 $X=3.56 $Y=2.935
c83 35 0 1.02575e-19 $X=4.06 $Y=2.74
c84 33 0 1.18035e-19 $X=4.06 $Y=1.825
c85 18 0 1.97615e-19 $X=4.145 $Y=2.195
r86 38 40 30.0107 $w=1.68e-07 $l=4.6e-07 $layer=LI1_cond $X=4.145 $Y=2.655
+ $X2=4.145 $Y2=2.195
r87 37 40 18.5936 $w=1.68e-07 $l=2.85e-07 $layer=LI1_cond $X=4.145 $Y=1.91
+ $X2=4.145 $Y2=2.195
r88 35 38 6.81649 $w=1.7e-07 $l=1.20208e-07 $layer=LI1_cond $X=4.06 $Y=2.74
+ $X2=4.145 $Y2=2.655
r89 35 36 27.0749 $w=1.68e-07 $l=4.15e-07 $layer=LI1_cond $X=4.06 $Y=2.74
+ $X2=3.645 $Y2=2.74
r90 33 37 6.81649 $w=1.7e-07 $l=1.20208e-07 $layer=LI1_cond $X=4.06 $Y=1.825
+ $X2=4.145 $Y2=1.91