* File: sky130_osu_sc_18T_ms__pcgateCKa_new.pex.spice
* Created: Wed Mar  9 13:59:08 2022
* Program "Calibre xRC"
* Version "v2021.2_28.15"
* Nominal Temperature: 27C
* Circuit Temperature: 27C
* 
.subckt PM_SKY130_OSU_SC_18T_MS__PCGATECKA_NEW%GND 1 2 3 4 5 6 85 89 91 98 100
+ 107 109 119 121 131 133 140 159 164 166 168 170 172 174 176 178 181
c180 131 0 1.97615e-19 $X=3.99 $Y=0.825
r181 178 181 0.316691 $w=3.05e-07 $l=6.8e-07 $layer=MET1_cond $X=5.02 $Y=0.152
+ $X2=5.7 $Y2=0.152
r182 176 178 0.454078 $w=3.05e-07 $l=9.75e-07 $layer=MET1_cond $X=4.045 $Y=0.152
+ $X2=5.02 $Y2=0.152
r183 174 176 0.316691 $w=3.05e-07 $l=6.8e-07 $layer=MET1_cond $X=3.365 $Y=0.152
+ $X2=4.045 $Y2=0.152
r184 172 174 0.316691 $w=3.05e-07 $l=6.8e-07 $layer=MET1_cond $X=2.685 $Y=0.152
+ $X2=3.365 $Y2=0.152
r185 170 172 0.316691 $w=3.05e-07 $l=6.8e-07 $layer=MET1_cond $X=2.005 $Y=0.152
+ $X2=2.685 $Y2=0.152
r186 168 170 0.319019 $w=3.05e-07 $l=6.85e-07 $layer=MET1_cond $X=1.32 $Y=0.152
+ $X2=2.005 $Y2=0.152
r187 166 168 0.314362 $w=3.05e-07 $l=6.75e-07 $layer=MET1_cond $X=0.645 $Y=0.152
+ $X2=1.32 $Y2=0.152
r188 164 166 0.430792 $w=3.05e-07 $l=9.25e-07 $layer=MET1_cond $X=-0.28 $Y=0.152
+ $X2=0.645 $Y2=0.152
r189 162 164 0.316225 $w=3.05e-07 $l=6.79e-07 $layer=MET1_cond $X=-0.959
+ $Y=0.152 $X2=-0.28 $Y2=0.152
r190 159 162 0.000465721 $w=3.05e-07 $l=1e-09 $layer=MET1_cond $X=-0.96 $Y=0.152
+ $X2=-0.959 $Y2=0.152
r191 138 140 33.9251 $w=1.68e-07 $l=5.2e-07 $layer=LI1_cond $X=5.73 $Y=0.305
+ $X2=5.73 $Y2=0.825
r192 129 131 33.9251 $w=1.68e-07 $l=5.2e-07 $layer=LI1_cond $X=3.99 $Y=0.305
+ $X2=3.99 $Y2=0.825
r193 122 150 3.10218 $w=3.05e-07 $l=8.5e-08 $layer=LI1_cond $X=2.605 $Y=0.152
+ $X2=2.52 $Y2=0.152
r194 117 150 3.51065 $w=1.7e-07 $l=1.53e-07 $layer=LI1_cond $X=2.52 $Y=0.305
+ $X2=2.52 $Y2=0.152
r195 117 119 33.9251 $w=1.68e-07 $l=5.2e-07 $layer=LI1_cond $X=2.52 $Y=0.305
+ $X2=2.52 $Y2=0.825
r196 110 149 3.10218 $w=3.05e-07 $l=8.5e-08 $layer=LI1_cond $X=0.855 $Y=0.152
+ $X2=0.77 $Y2=0.152
r197 109 150 3.10218 $w=3.05e-07 $l=8.5e-08 $layer=LI1_cond $X=2.435 $Y=0.152
+ $X2=2.52 $Y2=0.152
r198 105 149 3.51065 $w=1.7e-07 $l=1.53e-07 $layer=LI1_cond $X=0.77 $Y=0.305
+ $X2=0.77 $Y2=0.152
r199 105 107 33.9251 $w=1.68e-07 $l=5.2e-07 $layer=LI1_cond $X=0.77 $Y=0.305
+ $X2=0.77 $Y2=0.825
r200 101 148 3.10218 $w=3.05e-07 $l=8.5e-08 $layer=LI1_cond $X=-0.095 $Y=0.152
+ $X2=-0.18 $Y2=0.152
r201 100 149 3.10218 $w=3.05e-07 $l=8.5e-08 $layer=LI1_cond $X=0.685 $Y=0.152
+ $X2=0.77 $Y2=0.152
r202 96 148 3.51065 $w=1.7e-07 $l=1.53e-07 $layer=LI1_cond $X=-0.18 $Y=0.305
+ $X2=-0.18 $Y2=0.152
r203 96 98 33.9251 $w=1.68e-07 $l=5.2e-07 $layer=LI1_cond $X=-0.18 $Y=0.305
+ $X2=-0.18 $Y2=0.825
r204 91 148 3.10218 $w=3.05e-07 $l=8.5e-08 $layer=LI1_cond $X=-0.265 $Y=0.152
+ $X2=-0.18 $Y2=0.152
r205 87 89 33.9251 $w=1.68e-07 $l=5.2e-07 $layer=LI1_cond $X=-1.04 $Y=0.305
+ $X2=-1.04 $Y2=0.825
r206 85 181 1.86 $w=1.7e-07 $l=8.5e-07 $layer=mcon $count=5 $X=5.7 $Y=0.19
+ $X2=5.7 $Y2=0.19
r207 85 162 1.86 $w=1.7e-07 $l=8.5e-07 $layer=mcon $count=5 $X=-0.959 $Y=0.19
+ $X2=-0.959 $Y2=0.19
r208 85 138 3.51065 $w=1.7e-07 $l=1.53e-07 $layer=LI1_cond $X=5.73 $Y=0.152
+ $X2=5.73 $Y2=0.305
r209 85 133 3.10218 $w=3.05e-07 $l=8.5e-08 $layer=LI1_cond $X=5.73 $Y=0.152
+ $X2=5.645 $Y2=0.152
r210 85 129 3.51065 $w=1.7e-07 $l=1.53e-07 $layer=LI1_cond $X=3.99 $Y=0.152
+ $X2=3.99 $Y2=0.305
r211 85 121 3.10218 $w=3.05e-07 $l=8.5e-08 $layer=LI1_cond $X=3.99 $Y=0.152
+ $X2=3.905 $Y2=0.152
r212 85 134 3.10218 $w=3.05e-07 $l=8.5e-08 $layer=LI1_cond $X=3.99 $Y=0.152
+ $X2=4.075 $Y2=0.152
r213 85 87 4.35274 $w=1.7e-07 $l=1.98681e-07 $layer=LI1_cond $X=-1.145 $Y=0.152
+ $X2=-1.04 $Y2=0.305
r214 85 92 3.2055 $w=3.05e-07 $l=1.9e-07 $layer=LI1_cond $X=-1.145 $Y=0.152
+ $X2=-0.955 $Y2=0.152
r215 85 133 23.6156 $w=3.03e-07 $l=6.25e-07 $layer=LI1_cond $X=5.02 $Y=0.152
+ $X2=5.645 $Y2=0.152
r216 85 134 35.7068 $w=3.03e-07 $l=9.45e-07 $layer=LI1_cond $X=5.02 $Y=0.152
+ $X2=4.075 $Y2=0.152
r217 85 121 20.4039 $w=3.03e-07 $l=5.4e-07 $layer=LI1_cond $X=3.365 $Y=0.152
+ $X2=3.905 $Y2=0.152
r218 85 122 3.0228 $w=3.03e-07 $l=8e-08 $layer=LI1_cond $X=2.685 $Y=0.152
+ $X2=2.605 $Y2=0.152
r219 85 109 16.2476 $w=3.03e-07 $l=4.3e-07 $layer=LI1_cond $X=2.005 $Y=0.152
+ $X2=2.435 $Y2=0.152
r220 85 110 17.759 $w=3.03e-07 $l=4.7e-07 $layer=LI1_cond $X=1.325 $Y=0.152
+ $X2=0.855 $Y2=0.152
r221 85 100 1.5114 $w=3.03e-07 $l=4e-08 $layer=LI1_cond $X=0.645 $Y=0.152
+ $X2=0.685 $Y2=0.152
r222 85 101 27.9609 $w=3.03e-07 $l=7.4e-07 $layer=LI1_cond $X=0.645 $Y=0.152
+ $X2=-0.095 $Y2=0.152
r223 85 91 0.52899 $w=3.03e-07 $l=1.4e-08 $layer=LI1_cond $X=-0.279 $Y=0.152
+ $X2=-0.265 $Y2=0.152
r224 85 92 25.5427 $w=3.03e-07 $l=6.76e-07 $layer=LI1_cond $X=-0.279 $Y=0.152
+ $X2=-0.955 $Y2=0.152
r225 6 140 91 $w=1.7e-07 $l=3.1225e-07 $layer=licon1_NDIFF $count=2 $X=5.59
+ $Y=0.575 $X2=5.73 $Y2=0.825
r226 5 131 91 $w=1.7e-07 $l=3.1225e-07 $layer=licon1_NDIFF $count=2 $X=3.85
+ $Y=0.575 $X2=3.99 $Y2=0.825
r227 4 119 91 $w=1.7e-07 $l=3.1225e-07 $layer=licon1_NDIFF $count=2 $X=2.38
+ $Y=0.575 $X2=2.52 $Y2=0.825
r228 3 107 91 $w=1.7e-07 $l=3.1225e-07 $layer=licon1_NDIFF $count=2 $X=0.63
+ $Y=0.575 $X2=0.77 $Y2=0.825
r229 2 98 91 $w=1.7e-07 $l=3.1265e-07 $layer=licon1_NDIFF $count=2 $X=-0.32
+ $Y=0.575 $X2=-0.179 $Y2=0.825
r230 1 89 91 $w=1.7e-07 $l=3.06594e-07 $layer=licon1_NDIFF $count=2 $X=-1.165
+ $Y=0.575 $X2=-1.039 $Y2=0.825
.ends

.subckt PM_SKY130_OSU_SC_18T_MS__PCGATECKA_NEW%VDD 1 2 3 4 5 6 65 67 74 78 84 88
+ 96 100 108 112 116 120 127 141 143 148 150 152 154 156 158 160 162 166
r117 164 166 0.00232861 $w=3.05e-07 $l=5e-09 $layer=MET1_cond $X=5.7 $Y=6.507
+ $X2=5.705 $Y2=6.507
r118 162 164 0.314362 $w=3.05e-07 $l=6.75e-07 $layer=MET1_cond $X=5.025 $Y=6.507
+ $X2=5.7 $Y2=6.507
r119 160 162 0.456407 $w=3.05e-07 $l=9.8e-07 $layer=MET1_cond $X=4.045 $Y=6.507
+ $X2=5.025 $Y2=6.507
r120 158 160 0.316691 $w=3.05e-07 $l=6.8e-07 $layer=MET1_cond $X=3.365 $Y=6.507
+ $X2=4.045 $Y2=6.507
r121 156 158 0.314362 $w=3.05e-07 $l=6.75e-07 $layer=MET1_cond $X=2.69 $Y=6.507
+ $X2=3.365 $Y2=6.507
r122 154 156 0.319019 $w=3.05e-07 $l=6.85e-07 $layer=MET1_cond $X=2.005 $Y=6.507
+ $X2=2.69 $Y2=6.507
r123 152 154 0.316691 $w=3.05e-07 $l=6.8e-07 $layer=MET1_cond $X=1.325 $Y=6.507
+ $X2=2.005 $Y2=6.507
r124 150 152 0.316691 $w=3.05e-07 $l=6.8e-07 $layer=MET1_cond $X=0.645 $Y=6.507
+ $X2=1.325 $Y2=6.507
r125 148 150 0.428464 $w=3.05e-07 $l=9.2e-07 $layer=MET1_cond $X=-0.275 $Y=6.507
+ $X2=0.645 $Y2=6.507
r126 146 148 0.318553 $w=3.05e-07 $l=6.84e-07 $layer=MET1_cond $X=-0.959
+ $Y=6.507 $X2=-0.275 $Y2=6.507
r127 143 146 0.000465721 $w=3.05e-07 $l=1e-09 $layer=MET1_cond $X=-0.96 $Y=6.507
+ $X2=-0.959 $Y2=6.507
r128 127 130 133.091 $w=1.68e-07 $l=2.04e-06 $layer=LI1_cond $X=5.8 $Y=3.795
+ $X2=5.8 $Y2=5.835
r129 125 141 3.51065 $w=1.7e-07 $l=1.52e-07 $layer=LI1_cond $X=5.8 $Y=6.355
+ $X2=5.8 $Y2=6.507
r130 125 130 33.9251 $w=1.68e-07 $l=5.2e-07 $layer=LI1_cond $X=5.8 $Y=6.355
+ $X2=5.8 $Y2=5.835
r131 123 164 1.86 $w=1.7e-07 $l=8.5e-07 $layer=mcon $count=5 $X=5.7 $Y=6.47
+ $X2=5.7 $Y2=6.47
r132 121 140 3.10218 $w=3.05e-07 $l=8.5e-08 $layer=LI1_cond $X=5.025 $Y=6.507
+ $X2=4.94 $Y2=6.507
r133 121 123 25.5049 $w=3.03e-07 $l=6.75e-07 $layer=LI1_cond $X=5.025 $Y=6.507
+ $X2=5.7 $Y2=6.507
r134 120 141 3.10218 $w=3.05e-07 $l=8.5e-08 $layer=LI1_cond $X=5.715 $Y=6.507
+ $X2=5.8 $Y2=6.507
r135 120 123 0.566775 $w=3.03e-07 $l=1.5e-08 $layer=LI1_cond $X=5.715 $Y=6.507
+ $X2=5.7 $Y2=6.507
r136 116 119 110.909 $w=1.68e-07 $l=1.7e-06 $layer=LI1_cond $X=4.94 $Y=4.135
+ $X2=4.94 $Y2=5.835
r137 114 140 3.51065 $w=1.7e-07 $l=1.52e-07 $layer=LI1_cond $X=4.94 $Y=6.355
+ $X2=4.94 $Y2=6.507
r138 114 119 33.9251 $w=1.68e-07 $l=5.2e-07 $layer=LI1_cond $X=4.94 $Y=6.355
+ $X2=4.94 $Y2=5.835
r139 113 138 3.10218 $w=3.05e-07 $l=8.5e-08 $layer=LI1_cond $X=4.075 $Y=6.507
+ $X2=3.99 $Y2=6.507
r140 112 140 3.10218 $w=3.05e-07 $l=8.5e-08 $layer=LI1_cond $X=4.855 $Y=6.507
+ $X2=4.94 $Y2=6.507
r141 112 113 29.4723 $w=3.03e-07 $l=7.8e-07 $layer=LI1_cond $X=4.855 $Y=6.507
+ $X2=4.075 $Y2=6.507
r142 108 111 155.273 $w=1.68e-07 $l=2.38e-06 $layer=LI1_cond $X=3.99 $Y=3.455
+ $X2=3.99 $Y2=5.835
r143 106 138 3.51065 $w=1.7e-07 $l=1.52e-07 $layer=LI1_cond $X=3.99 $Y=6.355
+ $X2=3.99 $Y2=6.507
r144 106 111 33.9251 $w=1.68e-07 $l=5.2e-07 $layer=LI1_cond $X=3.99 $Y=6.355
+ $X2=3.99 $Y2=5.835
r145 103 105 25.6938 $w=3.03e-07 $l=6.8e-07 $layer=LI1_cond $X=2.685 $Y=6.507
+ $X2=3.365 $Y2=6.507
r146 101 136 3.10218 $w=3.05e-07 $l=8.5e-08 $layer=LI1_cond $X=2.605 $Y=6.507
+ $X2=2.52 $Y2=6.507
r147 101 103 3.0228 $w=3.03e-07 $l=8e-08 $layer=LI1_cond $X=2.605 $Y=6.507
+ $X2=2.685 $Y2=6.507
r148 100 138 3.10218 $w=3.05e-07 $l=8.5e-08 $layer=LI1_cond $X=3.905 $Y=6.507
+ $X2=3.99 $Y2=6.507
r149 100 105 20.4039 $w=3.03e-07 $l=5.4e-07 $layer=LI1_cond $X=3.905 $Y=6.507
+ $X2=3.365 $Y2=6.507
r150 96 99 155.273 $w=1.68e-07 $l=2.38e-06 $layer=LI1_cond $X=2.52 $Y=3.455
+ $X2=2.52 $Y2=5.835
r151 94 136 3.51065 $w=1.7e-07 $l=1.52e-07 $layer=LI1_cond $X=2.52 $Y=6.355
+ $X2=2.52 $Y2=6.507
r152 94 99 33.9251 $w=1.68e-07 $l=5.2e-07 $layer=LI1_cond $X=2.52 $Y=6.355
+ $X2=2.52 $Y2=5.835
r153 91 93 25.6938 $w=3.03e-07 $l=6.8e-07 $layer=LI1_cond $X=1.325 $Y=6.507
+ $X2=2.005 $Y2=6.507
r154 89 135 3.10218 $w=3.05e-07 $l=8.5e-08 $layer=LI1_cond $X=0.855 $Y=6.507
+ $X2=0.77 $Y2=6.507
r155 89 91 17.759 $w=3.03e-07 $l=4.7e-07 $layer=LI1_cond $X=0.855 $Y=6.507
+ $X2=1.325 $Y2=6.507
r156 88 136 3.10218 $w=3.05e-07 $l=8.5e-08 $layer=LI1_cond $X=2.435 $Y=6.507
+ $X2=2.52 $Y2=6.507
r157 88 93 16.2476 $w=3.03e-07 $l=4.3e-07 $layer=LI1_cond $X=2.435 $Y=6.507
+ $X2=2.005 $Y2=6.507
r158 84 87 133.091 $w=1.68e-07 $l=2.04e-06 $layer=LI1_cond $X=0.77 $Y=3.795
+ $X2=0.77 $Y2=5.835
r159 82 135 3.51065 $w=1.7e-07 $l=1.52e-07 $layer=LI1_cond $X=0.77 $Y=6.355
+ $X2=0.77 $Y2=6.507
r160 82 87 33.9251 $w=1.68e-07 $l=5.2e-07 $layer=LI1_cond $X=0.77 $Y=6.355
+ $X2=0.77 $Y2=5.835
r161 79 134 3.10218 $w=3.05e-07 $l=8.5e-08 $layer=LI1_cond $X=-0.165 $Y=6.507
+ $X2=-0.25 $Y2=6.507
r162 79 81 30.6059 $w=3.03e-07 $l=8.1e-07 $layer=LI1_cond $X=-0.165 $Y=6.507
+ $X2=0.645 $Y2=6.507
r163 78 135 3.10218 $w=3.05e-07 $l=8.5e-08 $layer=LI1_cond $X=0.685 $Y=6.507
+ $X2=0.77 $Y2=6.507
r164 78 81 1.5114 $w=3.03e-07 $l=4e-08 $layer=LI1_cond $X=0.685 $Y=6.507
+ $X2=0.645 $Y2=6.507
r165 74 77 110.909 $w=1.68e-07 $l=1.7e-06 $layer=LI1_cond $X=-0.25 $Y=4.135
+ $X2=-0.25 $Y2=5.835
r166 72 134 3.51065 $w=1.7e-07 $l=1.52e-07 $layer=LI1_cond $X=-0.25 $Y=6.355
+ $X2=-0.25 $Y2=6.507
r167 72 77 33.9251 $w=1.68e-07 $l=5.2e-07 $layer=LI1_cond $X=-0.25 $Y=6.355
+ $X2=-0.25 $Y2=5.835
r168 69 146 1.86 $w=1.7e-07 $l=8.5e-07 $layer=mcon $count=5 $X=-0.959 $Y=6.47
+ $X2=-0.959 $Y2=6.47
r169 67 134 3.10218 $w=3.05e-07 $l=8.5e-08 $layer=LI1_cond $X=-0.335 $Y=6.507
+ $X2=-0.25 $Y2=6.507
r170 67 69 23.5779 $w=3.03e-07 $l=6.24e-07 $layer=LI1_cond $X=-0.335 $Y=6.507
+ $X2=-0.959 $Y2=6.507
r171 65 123 182 $w=1.7e-07 $l=2.43824e-07 $layer=licon1_NTAP_notbjt $count=1
+ $X=5.495 $Y=6.355 $X2=5.7 $Y2=6.44
r172 65 140 182 $w=1.7e-07 $l=2.43824e-07 $layer=licon1_NTAP_notbjt $count=1
+ $X=4.815 $Y=6.355 $X2=5.02 $Y2=6.44
r173 65 138 182 $w=1.7e-07 $l=2.43824e-07 $layer=licon1_NTAP_notbjt $count=1
+ $X=3.84 $Y=6.355 $X2=4.045 $Y2=6.44
r174 65 105 182 $w=1.7e-07 $l=2.43824e-07 $layer=licon1_NTAP_notbjt $count=1
+ $X=3.16 $Y=6.355 $X2=3.365 $Y2=6.44
r175 65 103 182 $w=1.7e-07 $l=2.43824e-07 $layer=licon1_NTAP_notbjt $count=1
+ $X=2.48 $Y=6.355 $X2=2.685 $Y2=6.44
r176 65 93 182 $w=1.7e-07 $l=2.43824e-07 $layer=licon1_NTAP_notbjt $count=1
+ $X=1.8 $Y=6.355 $X2=2.005 $Y2=6.44
r177 65 91 182 $w=1.7e-07 $l=2.43824e-07 $layer=licon1_NTAP_notbjt $count=1
+ $X=1.12 $Y=6.355 $X2=1.325 $Y2=6.44
r178 65 81 182 $w=1.7e-07 $l=2.43824e-07 $layer=licon1_NTAP_notbjt $count=1
+ $X=0.44 $Y=6.355 $X2=0.645 $Y2=6.44
r179 65 134 182 $w=1.7e-07 $l=2.44839e-07 $layer=licon1_NTAP_notbjt $count=1
+ $X=-0.485 $Y=6.355 $X2=-0.279 $Y2=6.44
r180 65 69 182 $w=1.7e-07 $l=2.44839e-07 $layer=licon1_NTAP_notbjt $count=1
+ $X=-1.165 $Y=6.355 $X2=-0.959 $Y2=6.44
r181 6 130 171.429 $w=1.7e-07 $l=2.81913e-06 $layer=licon1_PDIFF $count=3
+ $X=5.66 $Y=3.085 $X2=5.8 $Y2=5.835
r182 6 127 171.429 $w=1.7e-07 $l=7.76853e-07 $layer=licon1_PDIFF $count=3
+ $X=5.66 $Y=3.085 $X2=5.8 $Y2=3.795
r183 5 119 200 $w=1.7e-07 $l=2.81181e-06 $layer=licon1_PDIFF $count=3 $X=4.815
+ $Y=3.085 $X2=4.94 $Y2=5.835
r184 5 116 200 $w=1.7e-07 $l=1.11074e-06 $layer=licon1_PDIFF $count=3 $X=4.815
+ $Y=3.085 $X2=4.94 $Y2=4.135
r185 4 111 150 $w=1.7e-07 $l=2.81913e-06 $layer=licon1_PDIFF $count=4 $X=3.85
+ $Y=3.085 $X2=3.99 $Y2=5.835
r186 4 108 150 $w=1.7e-07 $l=4.34396e-07 $layer=licon1_PDIFF $count=4 $X=3.85
+ $Y=3.085 $X2=3.99 $Y2=3.455
r187 3 99 150 $w=1.7e-07 $l=2.81913e-06 $layer=licon1_PDIFF $count=4 $X=2.38
+ $Y=3.085 $X2=2.52 $Y2=5.835
r188 3 96 150 $w=1.7e-07 $l=4.34396e-07 $layer=licon1_PDIFF $count=4 $X=2.38
+ $Y=3.085 $X2=2.52 $Y2=3.455
r189 2 87 171.429 $w=1.7e-07 $l=2.81913e-06 $layer=licon1_PDIFF $count=3 $X=0.63
+ $Y=3.085 $X2=0.77 $Y2=5.835
r190 2 84 171.429 $w=1.7e-07 $l=7.76853e-07 $layer=licon1_PDIFF $count=3 $X=0.63
+ $Y=3.085 $X2=0.77 $Y2=3.795
r191 1 77 200 $w=1.7e-07 $l=2.81962e-06 $layer=licon1_PDIFF $count=3 $X=-0.39
+ $Y=3.085 $X2=-0.249 $Y2=5.835
r192 1 74 200 $w=1.7e-07 $l=1.11828e-06 $layer=licon1_PDIFF $count=3 $X=-0.39
+ $Y=3.085 $X2=-0.249 $Y2=4.135
.ends

.subckt PM_SKY130_OSU_SC_18T_MS__PCGATECKA_NEW%SE 3 7 10 13 19 22 24
r51 24 26 0.00293427 $w=2.13e-07 $l=5e-09 $layer=MET1_cond $X=-0.654 $Y=2.96
+ $X2=-0.649 $Y2=2.96
r52 22 24 0.000586854 $w=2.13e-07 $l=1e-09 $layer=MET1_cond $X=-0.655 $Y=2.96
+ $X2=-0.654 $Y2=2.96
r53 19 26 9.3 $w=1.7e-07 $l=1.7e-07 $layer=mcon $count=1 $X=-0.649 $Y=2.96
+ $X2=-0.649 $Y2=2.96
r54 17 19 51.2139 $w=1.68e-07 $l=7.85e-07 $layer=LI1_cond $X=-0.65 $Y=2.175
+ $X2=-0.65 $Y2=2.96
r55 13 17 6.81649 $w=1.7e-07 $l=1.20208e-07 $layer=LI1_cond $X=-0.735 $Y=2.09
+ $X2=-0.65 $Y2=2.175
r56 13 15 9.72086 $w=1.68e-07 $l=1.49e-07 $layer=LI1_cond $X=-0.735 $Y=2.09
+ $X2=-0.884 $Y2=2.09
r57 10 15 145.28 $w=1.7e-07 $l=1.7e-07 $layer=licon1_POLY $count=1 $X=-0.884
+ $Y=2.09 $X2=-0.884 $Y2=2.09
r58 10 12 48.4159 $w=2.7e-07 $l=1.65e-07 $layer=POLY_cond $X=-0.885 $Y=2.09
+ $X2=-0.885 $Y2=2.255
r59 10 11 48.4159 $w=2.7e-07 $l=1.65e-07 $layer=POLY_cond $X=-0.885 $Y=2.09
+ $X2=-0.885 $Y2=1.925
r60 7 12 1194.74 $w=1.5e-07 $l=2.33e-06 $layer=POLY_cond $X=-0.825 $Y=4.585
+ $X2=-0.825 $Y2=2.255
r61 3 11 435.851 $w=1.5e-07 $l=8.5e-07 $layer=POLY_cond $X=-0.825 $Y=1.075
+ $X2=-0.825 $Y2=1.925
.ends

.subckt PM_SKY130_OSU_SC_18T_MS__PCGATECKA_NEW%E 3 7 10 14 22
r47 20 22 0.001703 $w=3.67e-07 $l=5e-09 $layer=MET1_cond $X=-0.362 $Y=3.33
+ $X2=-0.362 $Y2=3.335
r48 17 20 9.3 $w=1.7e-07 $l=1.7e-07 $layer=mcon $count=1 $X=-0.309 $Y=3.33
+ $X2=-0.309 $Y2=3.33
r49 14 17 37.5134 $w=1.68e-07 $l=5.75e-07 $layer=LI1_cond $X=-0.31 $Y=2.755
+ $X2=-0.31 $Y2=3.33
r50 10 14 145.28 $w=1.7e-07 $l=1.7e-07 $layer=licon1_POLY $count=1 $X=-0.309
+ $Y=2.755 $X2=-0.309 $Y2=2.755
r51 10 12 46.6671 $w=3.65e-07 $l=1.65e-07 $layer=POLY_cond $X=-0.357 $Y=2.755
+ $X2=-0.357 $Y2=2.92
r52 10 11 46.6671 $w=3.65e-07 $l=1.65e-07 $layer=POLY_cond $X=-0.357 $Y=2.755
+ $X2=-0.357 $Y2=2.59
r53 7 11 776.84 $w=1.5e-07 $l=1.515e-06 $layer=POLY_cond $X=-0.395 $Y=1.075
+ $X2=-0.395 $Y2=2.59
r54 3 12 853.755 $w=1.5e-07 $l=1.665e-06 $layer=POLY_cond $X=-0.465 $Y=4.585
+ $X2=-0.465 $Y2=2.92
.ends

.subckt PM_SKY130_OSU_SC_18T_MS__PCGATECKA_NEW%A_86_337# 1 3 13 16 18 19 21 22
+ 23 24 25 27 28 30 31 32 35 39
r87 39 41 80.671 $w=3.38e-07 $l=2.38e-06 $layer=LI1_cond $X=1.645 $Y=3.455
+ $X2=1.645 $Y2=5.835
r88 37 39 6.27065 $w=3.38e-07 $l=1.85e-07 $layer=LI1_cond $X=1.645 $Y=3.27
+ $X2=1.645 $Y2=3.455
r89 33 35 17.6256 $w=3.38e-07 $l=5.2e-07 $layer=LI1_cond $X=1.645 $Y=1.345
+ $X2=1.645 $Y2=0.825
r90 31 33 7.85115 $w=1.7e-07 $l=2.08207e-07 $layer=LI1_cond $X=1.475 $Y=1.43
+ $X2=1.645 $Y2=1.345
r91 31 32 18.2674 $w=1.68e-07 $l=2.8e-07 $layer=LI1_cond $X=1.475 $Y=1.43
+ $X2=1.195 $Y2=1.43
r92 29 32 6.81649 $w=1.7e-07 $l=1.20208e-07 $layer=LI1_cond $X=1.11 $Y=1.515
+ $X2=1.195 $Y2=1.43
r93 29 30 16.3102 $w=1.68e-07 $l=2.5e-07 $layer=LI1_cond $X=1.11 $Y=1.515
+ $X2=1.11 $Y2=1.765
r94 27 37 7.85115 $w=1.7e-07 $l=2.08207e-07 $layer=LI1_cond $X=1.475 $Y=3.185
+ $X2=1.645 $Y2=3.27
r95 27 28 53.8235 $w=1.68e-07 $l=8.25e-07 $layer=LI1_cond $X=1.475 $Y=3.185
+ $X2=0.65 $Y2=3.185
r96 26 44 3.40825 $w=1.7e-07 $l=1.03078e-07 $layer=LI1_cond $X=0.65 $Y=1.85
+ $X2=0.565 $Y2=1.81
r97 25 30 6.81649 $w=1.7e-07 $l=1.20208e-07 $layer=LI1_cond $X=1.025 $Y=1.85
+ $X2=1.11 $Y2=1.765
r98 25 26 24.4652 $w=1.68e-07 $l=3.75e-07 $layer=LI1_cond $X=1.025 $Y=1.85
+ $X2=0.65 $Y2=1.85
r99 24 28 6.81649 $w=1.7e-07 $l=1.20208e-07 $layer=LI1_cond $X=0.565 $Y=3.1
+ $X2=0.65 $Y2=3.185
r100 23 44 3.40825 $w=1.7e-07 $l=1.25e-07 $layer=LI1_cond $X=0.565 $Y=1.935
+ $X2=0.565 $Y2=1.81
r101 23 24 76.0053 $w=1.68e-07 $l=1.165e-06 $layer=LI1_cond $X=0.565 $Y=1.935
+ $X2=0.565 $Y2=3.1
r102 21 22 56.3681 $w=2e-07 $l=1.7e-07 $layer=POLY_cond $X=0.53 $Y=2.805
+ $X2=0.53 $Y2=2.975
r103 20 21 405.085 $w=1.5e-07 $l=7.9e-07 $layer=POLY_cond $X=0.505 $Y=2.015
+ $X2=0.505 $Y2=2.805
r104 18 44 145.28 $w=1.7e-07 $l=1.7e-07 $layer=licon1_POLY $count=1 $X=0.565
+ $Y=1.85 $X2=0.565 $Y2=1.85
r105 18 20 48.4159 $w=2.7e-07 $l=1.65e-07 $layer=POLY_cond $X=0.565 $Y=1.85
+ $X2=0.565 $Y2=2.015
r106 18 19 48.4159 $w=2.7e-07 $l=1.65e-07 $layer=POLY_cond $X=0.565 $Y=1.85
+ $X2=0.565 $Y2=1.685
r107 16 22 517.347 $w=1.5e-07 $l=1.61e-06 $layer=POLY_cond $X=0.555 $Y=4.585
+ $X2=0.555 $Y2=2.975
r108 13 19 196.013 $w=1.5e-07 $l=6.1e-07 $layer=POLY_cond $X=0.555 $Y=1.075
+ $X2=0.555 $Y2=1.685
r109 3 41 150 $w=1.7e-07 $l=2.86029e-06 $layer=licon1_PDIFF $count=4 $X=1.42
+ $Y=3.085 $X2=1.645 $Y2=5.835
r110 3 39 150 $w=1.7e-07 $l=4.69201e-07 $layer=licon1_PDIFF $count=4 $X=1.42
+ $Y=3.085 $X2=1.645 $Y2=3.455
r111 1 35 91 $w=1.7e-07 $l=3.44601e-07 $layer=licon1_NDIFF $count=2 $X=1.42
+ $Y=0.575 $X2=1.645 $Y2=0.825
.ends

.subckt PM_SKY130_OSU_SC_18T_MS__PCGATECKA_NEW%A_N233_617# 1 3 11 15 18 22 30 36
+ 41 42 44 51 53 55 56
c111 36 0 1.69728e-19 $X=0.925 $Y=2.425
c112 15 0 1.88247e-19 $X=0.985 $Y=4.585
c113 11 0 1.38221e-19 $X=0.985 $Y=1.075
r114 55 56 0.10183 $w=2.3e-07 $l=1.45e-07 $layer=MET1_cond $X=0.925 $Y=2.595
+ $X2=0.78 $Y2=2.595
r115 46 53 0.0522905 $w=1.72e-07 $l=9.2e-08 $layer=MET1_cond $X=-0.525 $Y=2.592
+ $X2=-0.617 $Y2=2.592
r116 46 56 1.18114 $w=1.75e-07 $l=1.305e-06 $layer=MET1_cond $X=-0.525 $Y=2.592
+ $X2=0.78 $Y2=2.592
r117 44 53 0.0142949 $w=1.7e-07 $l=9.04323e-08 $layer=MET1_cond $X=-0.61
+ $Y=2.505 $X2=-0.617 $Y2=2.592
r118 43 51 0.0804477 $w=2.9e-07 $l=1.15e-07 $layer=MET1_cond $X=-0.61 $Y=1.595
+ $X2=-0.61 $Y2=1.48
r119 43 44 0.876223 $w=1.7e-07 $l=9.1e-07 $layer=MET1_cond $X=-0.61 $Y=1.595
+ $X2=-0.61 $Y2=2.505
r120 42 48 0.102734 $w=2.3e-07 $l=1.44e-07 $layer=MET1_cond $X=-0.895 $Y=2.59
+ $X2=-1.039 $Y2=2.59
r121 41 53 0.0522905 $w=1.72e-07 $l=9.39947e-08 $layer=MET1_cond $X=-0.71
+ $Y=2.59 $X2=-0.617 $Y2=2.592
r122 41 42 0.178133 $w=1.7e-07 $l=1.85e-07 $layer=MET1_cond $X=-0.71 $Y=2.59
+ $X2=-0.895 $Y2=2.59
r123 39 55 9.3 $w=1.7e-07 $l=1.7e-07 $layer=mcon $count=1 $X=0.925 $Y=2.595
+ $X2=0.925 $Y2=2.595
r124 36 39 11.0909 $w=1.68e-07 $l=1.7e-07 $layer=LI1_cond $X=0.925 $Y=2.425
+ $X2=0.925 $Y2=2.595
r125 33 51 9.3 $w=1.7e-07 $l=1.7e-07 $layer=mcon $count=1 $X=-0.609 $Y=1.48
+ $X2=-0.609 $Y2=1.48
r126 30 33 42.7326 $w=1.68e-07 $l=6.55e-07 $layer=LI1_cond $X=-0.61 $Y=0.825
+ $X2=-0.61 $Y2=1.48
r127 25 27 155.273 $w=1.68e-07 $l=2.38e-06 $layer=LI1_cond $X=-1.04 $Y=3.455
+ $X2=-1.04 $Y2=5.835
r128 22 48 9.3 $w=1.7e-07 $l=1.7e-07 $layer=mcon $count=1 $X=-1.039 $Y=2.59
+ $X2=-1.039 $Y2=2.59
r129 22 25 56.4332 $w=1.68e-07 $l=8.65e-07 $layer=LI1_cond $X=-1.04 $Y=2.59
+ $X2=-1.04 $Y2=3.455
r130 18 36 145.28 $w=1.7e-07 $l=1.7e-07 $layer=licon1_POLY $count=1 $X=0.925
+ $Y=2.425 $X2=0.925 $Y2=2.425
r131 18 20 48.4159 $w=2.7e-07 $l=1.65e-07 $layer=POLY_cond $X=0.925 $Y=2.425
+ $X2=0.925 $Y2=2.59
r132 18 19 48.4159 $w=2.7e-07 $l=1.65e-07 $layer=POLY_cond $X=0.925 $Y=2.425
+ $X2=0.925 $Y2=2.26
r133 15 20 1022.97 $w=1.5e-07 $l=1.995e-06 $layer=POLY_cond $X=0.985 $Y=4.585
+ $X2=0.985 $Y2=2.59
r134 11 19 607.628 $w=1.5e-07 $l=1.185e-06 $layer=POLY_cond $X=0.985 $Y=1.075
+ $X2=0.985 $Y2=2.26
r135 3 27 150 $w=1.7e-07 $l=2.81229e-06 $layer=licon1_PDIFF $count=4 $X=-1.165
+ $Y=3.085 $X2=-1.039 $Y2=5.835
r136 3 25 150 $w=1.7e-07 $l=4.28392e-07 $layer=licon1_PDIFF $count=4 $X=-1.165
+ $Y=3.085 $X2=-1.039 $Y2=3.455
r137 1 30 91 $w=1.7e-07 $l=3.1265e-07 $layer=licon1_NDIFF $count=2 $X=-0.75
+ $Y=0.575 $X2=-0.609 $Y2=0.825
.ends

.subckt PM_SKY130_OSU_SC_18T_MS__PCGATECKA_NEW%CK 3 7 8 10 13 15 18 22 23 25 26
+ 30 31 32 36 39 43 49
c126 39 0 2.90509e-19 $X=1.485 $Y=2.765
c127 36 0 1.69728e-19 $X=1.405 $Y=2.765
c128 32 0 1.38221e-19 $X=1.57 $Y=1.85
c129 30 0 1.88247e-19 $X=1.485 $Y=2.68
c130 25 0 1.9983e-19 $X=2.762 $Y=2.78
c131 18 0 3.61476e-21 $X=1.405 $Y=2.765
r132 43 49 9.3 $w=1.7e-07 $l=1.7e-07 $layer=mcon $count=1 $X=2.87 $Y=1.85
+ $X2=2.87 $Y2=1.85
r133 36 39 5.21925 $w=1.68e-07 $l=8e-08 $layer=LI1_cond $X=1.405 $Y=2.765
+ $X2=1.485 $Y2=2.765
r134 32 34 20.5508 $w=1.68e-07 $l=3.15e-07 $layer=LI1_cond $X=1.57 $Y=1.85
+ $X2=1.885 $Y2=1.85
r135 31 43 0.716491 $w=1.7e-07 $l=8.5e-08 $layer=LI1_cond $X=2.785 $Y=1.85
+ $X2=2.87 $Y2=1.85
r136 31 34 58.7166 $w=1.68e-07 $l=9e-07 $layer=LI1_cond $X=2.785 $Y=1.85
+ $X2=1.885 $Y2=1.85
r137 30 39 0.716491 $w=1.7e-07 $l=8.5e-08 $layer=LI1_cond $X=1.485 $Y=2.68
+ $X2=1.485 $Y2=2.765
r138 29 32 6.81649 $w=1.7e-07 $l=1.20208e-07 $layer=LI1_cond $X=1.485 $Y=1.935
+ $X2=1.57 $Y2=1.85
r139 29 30 48.6043 $w=1.68e-07 $l=7.45e-07 $layer=LI1_cond $X=1.485 $Y=1.935
+ $X2=1.485 $Y2=2.68
r140 28 43 145.28 $w=1.7e-07 $l=1.7e-07 $layer=licon1_POLY $count=1 $X=2.87
+ $Y=1.85 $X2=2.87 $Y2=1.85
r141 25 26 50.1409 $w=2.05e-07 $l=1.55e-07 $layer=POLY_cond $X=2.762 $Y=2.78
+ $X2=2.762 $Y2=2.935
r142 22 34 145.28 $w=1.7e-07 $l=1.7e-07 $layer=licon1_POLY $count=1 $X=1.885
+ $Y=1.85 $X2=1.885 $Y2=1.85
r143 22 23 48.4159 $w=2.7e-07 $l=1.65e-07 $layer=POLY_cond $X=1.885 $Y=1.85
+ $X2=1.885 $Y2=1.685
r144 18 36 145.28 $w=1.7e-07 $l=1.7e-07 $layer=licon1_POLY $count=1 $X=1.405
+ $Y=2.765 $X2=1.405 $Y2=2.765
r145 18 20 48.4159 $w=2.7e-07 $l=1.65e-07 $layer=POLY_cond $X=1.405 $Y=2.765
+ $X2=1.405 $Y2=2.93
r146 15 28 38.5334 $w=3.13e-07 $l=1.84811e-07 $layer=POLY_cond $X=2.79 $Y=2.015
+ $X2=2.832 $Y2=1.85
r147 15 25 392.266 $w=1.5e-07 $l=7.65e-07 $layer=POLY_cond $X=2.79 $Y=2.015
+ $X2=2.79 $Y2=2.78
r148 13 26 846.064 $w=1.5e-07 $l=1.65e-06 $layer=POLY_cond $X=2.735 $Y=4.585
+ $X2=2.735 $Y2=2.935
r149 8 28 41.6133 $w=3.13e-07 $l=2.28408e-07 $layer=POLY_cond $X=2.735 $Y=1.665
+ $X2=2.832 $Y2=1.85
r150 8 10 189.587 $w=1.5e-07 $l=5.9e-07 $layer=POLY_cond $X=2.735 $Y=1.665
+ $X2=2.735 $Y2=1.075
r151 7 23 196.013 $w=1.5e-07 $l=6.1e-07 $layer=POLY_cond $X=1.945 $Y=1.075
+ $X2=1.945 $Y2=1.685
r152 3 20 848.628 $w=1.5e-07 $l=1.655e-06 $layer=POLY_cond $X=1.345 $Y=4.585
+ $X2=1.345 $Y2=2.93
.ends

.subckt PM_SKY130_OSU_SC_18T_MS__PCGATECKA_NEW%A_254_89# 1 3 11 13 14 19 22 23
+ 26 33 37 44 47 51 53 54 59
c127 54 0 1.94649e-19 $X=2.03 $Y=2.59
c128 22 0 1.2087e-19 $X=1.885 $Y=2.765
c129 13 0 9.94742e-20 $X=1.75 $Y=2.3
r130 54 56 0.103375 $w=2.3e-07 $l=1.45e-07 $layer=MET1_cond $X=2.03 $Y=2.59
+ $X2=1.885 $Y2=2.59
r131 53 59 0.103375 $w=2.3e-07 $l=1.45e-07 $layer=MET1_cond $X=2.805 $Y=2.59
+ $X2=2.95 $Y2=2.59
r132 53 54 0.746234 $w=1.7e-07 $l=7.75e-07 $layer=MET1_cond $X=2.805 $Y=2.59
+ $X2=2.03 $Y2=2.59
r133 49 51 17.615 $w=1.68e-07 $l=2.7e-07 $layer=LI1_cond $X=2.95 $Y=2.27
+ $X2=3.22 $Y2=2.27
r134 45 47 17.615 $w=1.68e-07 $l=2.7e-07 $layer=LI1_cond $X=2.95 $Y=1.43
+ $X2=3.22 $Y2=1.43
r135 44 51 0.716491 $w=1.7e-07 $l=8.5e-08 $layer=LI1_cond $X=3.22 $Y=2.185
+ $X2=3.22 $Y2=2.27
r136 43 47 0.716491 $w=1.7e-07 $l=8.5e-08 $layer=LI1_cond $X=3.22 $Y=1.515
+ $X2=3.22 $Y2=1.43
r137 43 44 43.7112 $w=1.68e-07 $l=6.7e-07 $layer=LI1_cond $X=3.22 $Y=1.515
+ $X2=3.22 $Y2=2.185
r138 39 41 155.273 $w=1.68e-07 $l=2.38e-06 $layer=LI1_cond $X=2.95 $Y=3.455
+ $X2=2.95 $Y2=5.835
r139 37 59 9.3 $w=1.7e-07 $l=1.7e-07 $layer=mcon $count=1 $X=2.95 $Y=2.59
+ $X2=2.95 $Y2=2.59
r140 37 39 56.4332 $w=1.68e-07 $l=8.65e-07 $layer=LI1_cond $X=2.95 $Y=2.59
+ $X2=2.95 $Y2=3.455
r141 35 49 0.716491 $w=1.7e-07 $l=8.5e-08 $layer=LI1_cond $X=2.95 $Y=2.355
+ $X2=2.95 $Y2=2.27
r142 35 37 15.3316 $w=1.68e-07 $l=2.35e-07 $layer=LI1_cond $X=2.95 $Y=2.355
+ $X2=2.95 $Y2=2.59
r143 31 45 0.716491 $w=1.7e-07 $l=8.5e-08 $layer=LI1_cond $X=2.95 $Y=1.345
+ $X2=2.95 $Y2=1.43
r144 31 33 33.9251 $w=1.68e-07 $l=5.2e-07 $layer=LI1_cond $X=2.95 $Y=1.345
+ $X2=2.95 $Y2=0.825
r145 26 56 9.3 $w=1.7e-07 $l=1.7e-07 $layer=mcon $count=1 $X=1.885 $Y=2.59
+ $X2=1.885 $Y2=2.59
r146 26 29 11.4171 $w=1.68e-07 $l=1.75e-07 $layer=LI1_cond $X=1.885 $Y=2.59
+ $X2=1.885 $Y2=2.765
r147 22 29 145.28 $w=1.7e-07 $l=1.7e-07 $layer=licon1_POLY $count=1 $X=1.885
+ $Y=2.765 $X2=1.885 $Y2=2.765
r148 22 24 48.4159 $w=2.7e-07 $l=1.65e-07 $layer=POLY_cond $X=1.885 $Y=2.765
+ $X2=1.885 $Y2=2.93
r149 22 23 48.4159 $w=2.7e-07 $l=1.65e-07 $layer=POLY_cond $X=1.885 $Y=2.765
+ $X2=1.885 $Y2=2.6
r150 19 24 848.628 $w=1.5e-07 $l=1.655e-06 $layer=POLY_cond $X=1.945 $Y=4.585
+ $X2=1.945 $Y2=2.93
r151 15 23 115.372 $w=1.5e-07 $l=2.25e-07 $layer=POLY_cond $X=1.825 $Y=2.375
+ $X2=1.825 $Y2=2.6
r152 13 15 26.9307 $w=1.5e-07 $l=1.06066e-07 $layer=POLY_cond $X=1.75 $Y=2.3
+ $X2=1.825 $Y2=2.375
r153 13 14 169.213 $w=1.5e-07 $l=3.3e-07 $layer=POLY_cond $X=1.75 $Y=2.3
+ $X2=1.42 $Y2=2.3
r154 9 14 26.9307 $w=1.5e-07 $l=1.06066e-07 $layer=POLY_cond $X=1.345 $Y=2.225
+ $X2=1.42 $Y2=2.3
r155 9 11 589.681 $w=1.5e-07 $l=1.15e-06 $layer=POLY_cond $X=1.345 $Y=2.225
+ $X2=1.345 $Y2=1.075
r156 3 41 150 $w=1.7e-07 $l=2.81913e-06 $layer=licon1_PDIFF $count=4 $X=2.81
+ $Y=3.085 $X2=2.95 $Y2=5.835
r157 3 39 150 $w=1.7e-07 $l=4.34396e-07 $layer=licon1_PDIFF $count=4 $X=2.81
+ $Y=3.085 $X2=2.95 $Y2=3.455
r158 1 33 91 $w=1.7e-07 $l=3.1225e-07 $layer=licon1_NDIFF $count=2 $X=2.81
+ $Y=0.575 $X2=2.95 $Y2=0.825
.ends

.subckt PM_SKY130_OSU_SC_18T_MS__PCGATECKA_NEW%A_43_115# 1 3 11 15 23 26 28 32
+ 33 35 36 37 38 42 45 49 54 59 65 68 73 74 78 81 83
c177 81 0 1.2087e-19 $X=2.22 $Y=2.22
c178 59 0 1.9983e-19 $X=3.66 $Y=2.22
c179 32 0 2.20611e-19 $X=3.66 $Y=2.22
r180 80 81 0.115467 $w=2.3e-07 $l=1.45e-07 $layer=MET1_cond $X=2.365 $Y=2.22
+ $X2=2.22 $Y2=2.22
r181 78 81 2.2896 $w=1.4e-07 $l=1.85e-06 $layer=MET1_cond $X=0.37 $Y=2.2
+ $X2=2.22 $Y2=2.2
r182 76 78 0.115467 $w=2.3e-07 $l=1.45e-07 $layer=MET1_cond $X=0.225 $Y=2.22
+ $X2=0.37 $Y2=2.22
r183 74 80 0.118675 $w=2.3e-07 $l=1.5e-07 $layer=MET1_cond $X=2.515 $Y=2.22
+ $X2=2.365 $Y2=2.22
r184 73 83 0.115467 $w=2.3e-07 $l=1.45e-07 $layer=MET1_cond $X=3.515 $Y=2.22
+ $X2=3.66 $Y2=2.22
r185 73 74 1.23762 $w=1.4e-07 $l=1e-06 $layer=MET1_cond $X=3.515 $Y=2.22
+ $X2=2.515 $Y2=2.22
r186 68 70 8.33135 $w=2.83e-07 $l=1.6e-07 $layer=LI1_cond $X=0.282 $Y=3.795
+ $X2=0.282 $Y2=3.955
r187 68 69 12.1728 $w=2.83e-07 $l=2.55e-07 $layer=LI1_cond $X=0.282 $Y=3.795
+ $X2=0.282 $Y2=3.54
r188 63 65 7.50267 $w=1.68e-07 $l=1.15e-07 $layer=LI1_cond $X=0.225 $Y=1.395
+ $X2=0.34 $Y2=1.395
r189 59 83 9.3 $w=1.7e-07 $l=1.7e-07 $layer=mcon $count=1 $X=3.66 $Y=2.22
+ $X2=3.66 $Y2=2.22
r190 54 80 9.3 $w=1.7e-07 $l=1.7e-07 $layer=mcon $count=1 $X=2.365 $Y=2.22
+ $X2=2.365 $Y2=2.22
r191 49 51 110.909 $w=1.68e-07 $l=1.7e-06 $layer=LI1_cond $X=0.34 $Y=4.135
+ $X2=0.34 $Y2=5.835
r192 49 70 11.7433 $w=1.68e-07 $l=1.8e-07 $layer=LI1_cond $X=0.34 $Y=4.135
+ $X2=0.34 $Y2=3.955
r193 43 65 0.716491 $w=1.7e-07 $l=8.5e-08 $layer=LI1_cond $X=0.34 $Y=1.31
+ $X2=0.34 $Y2=1.395
r194 43 45 31.6417 $w=1.68e-07 $l=4.85e-07 $layer=LI1_cond $X=0.34 $Y=1.31
+ $X2=0.34 $Y2=0.825
r195 42 76 9.3 $w=1.7e-07 $l=1.7e-07 $layer=mcon $count=1 $X=0.225 $Y=2.22
+ $X2=0.225 $Y2=2.22
r196 42 69 86.1176 $w=1.68e-07 $l=1.32e-06 $layer=LI1_cond $X=0.225 $Y=2.22
+ $X2=0.225 $Y2=3.54
r197 39 63 0.716491 $w=1.7e-07 $l=8.5e-08 $layer=LI1_cond $X=0.225 $Y=1.48
+ $X2=0.225 $Y2=1.395
r198 39 42 48.2781 $w=1.68e-07 $l=7.4e-07 $layer=LI1_cond $X=0.225 $Y=1.48
+ $X2=0.225 $Y2=2.22
r199 37 38 49.7366 $w=2e-07 $l=1.5e-07 $layer=POLY_cond $X=3.75 $Y=2.855
+ $X2=3.75 $Y2=3.005
r200 35 36 49.7366 $w=2e-07 $l=1.5e-07 $layer=POLY_cond $X=3.75 $Y=1.65 $X2=3.75
+ $Y2=1.8
r201 34 37 241 $w=1.5e-07 $l=4.7e-07 $layer=POLY_cond $X=3.725 $Y=2.385
+ $X2=3.725 $Y2=2.855
r202 33 36 130.755 $w=1.5e-07 $l=2.55e-07 $layer=POLY_cond $X=3.725 $Y=2.055
+ $X2=3.725 $Y2=1.8
r203 32 59 145.28 $w=1.7e-07 $l=1.7e-07 $layer=licon1_POLY $count=1 $X=3.66
+ $Y=2.22 $X2=3.66 $Y2=2.22
r204 32 34 48.2986 $w=2.75e-07 $l=1.65e-07 $layer=POLY_cond $X=3.662 $Y=2.22
+ $X2=3.662 $Y2=2.385
r205 32 33 48.2986 $w=2.75e-07 $l=1.65e-07 $layer=POLY_cond $X=3.662 $Y=2.22
+ $X2=3.662 $Y2=2.055
r206 28 54 145.28 $w=1.7e-07 $l=1.7e-07 $layer=licon1_POLY $count=1 $X=2.365
+ $Y=2.22 $X2=2.365 $Y2=2.22
r207 28 30 48.4159 $w=2.7e-07 $l=1.65e-07 $layer=POLY_cond $X=2.365 $Y=2.22
+ $X2=2.365 $Y2=2.385
r208 28 29 48.4159 $w=2.7e-07 $l=1.65e-07 $layer=POLY_cond $X=2.365 $Y=2.22
+ $X2=2.365 $Y2=2.055
r209 26 38 507.707 $w=1.5e-07 $l=1.58e-06 $layer=POLY_cond $X=3.775 $Y=4.585
+ $X2=3.775 $Y2=3.005
r210 23 35 184.767 $w=1.5e-07 $l=5.75e-07 $layer=POLY_cond $X=3.775 $Y=1.075
+ $X2=3.775 $Y2=1.65
r211 15 30 1128.09 $w=1.5e-07 $l=2.2e-06 $layer=POLY_cond $X=2.305 $Y=4.585
+ $X2=2.305 $Y2=2.385
r212 11 29 502.511 $w=1.5e-07 $l=9.8e-07 $layer=POLY_cond $X=2.305 $Y=1.075
+ $X2=2.305 $Y2=2.055
r213 3 51 200 $w=1.7e-07 $l=2.81181e-06 $layer=licon1_PDIFF $count=3 $X=0.215
+ $Y=3.085 $X2=0.34 $Y2=5.835
r214 3 49 200 $w=1.7e-07 $l=1.11074e-06 $layer=licon1_PDIFF $count=3 $X=0.215
+ $Y=3.085 $X2=0.34 $Y2=4.135
r215 3 68 600 $w=1.7e-07 $l=7.69968e-07 $layer=licon1_PDIFF $count=1 $X=0.215
+ $Y=3.085 $X2=0.34 $Y2=3.795
r216 1 45 91 $w=1.7e-07 $l=3.06186e-07 $layer=licon1_NDIFF $count=2 $X=0.215