* File: sky130_osu_sc_12T_hs__dffs_l.pex.spice
* Created: Fri Nov 12 15:09:38 2021
* Program "Calibre xRC"
* Version "v2021.2_28.15"
* Nominal Temperature: 27C
* Circuit Temperature: 27C
* 
.subckt PM_SKY130_OSU_SC_12T_HS__DFFS_L%GND 1 2 3 4 5 6 97 99 107 109 113 115
+ 125 127 137 139 149 151 158 180 182
c214 137 0 3.34232e-19 $X=5.14 $Y=0.755
c215 113 0 3.14854e-19 $X=1.64 $Y=0.755
c216 97 0 2.10408e-19 $X=-0.055 $Y=0
r217 180 182 3.4836 $w=3.05e-07 $l=7.48e-06 $layer=MET1_cond $X=0.335 $Y=0.152
+ $X2=7.815 $Y2=0.152
r218 156 158 28.3797 $w=1.68e-07 $l=4.35e-07 $layer=LI1_cond $X=7.9 $Y=0.305
+ $X2=7.9 $Y2=0.74
r219 152 172 3.10218 $w=3.05e-07 $l=8.5e-08 $layer=LI1_cond $X=6.965 $Y=0.152
+ $X2=6.88 $Y2=0.152
r220 147 172 3.51065 $w=1.7e-07 $l=1.53e-07 $layer=LI1_cond $X=6.88 $Y=0.305
+ $X2=6.88 $Y2=0.152
r221 147 149 28.3797 $w=1.68e-07 $l=4.35e-07 $layer=LI1_cond $X=6.88 $Y=0.305
+ $X2=6.88 $Y2=0.74
r222 139 172 3.10218 $w=3.05e-07 $l=8.5e-08 $layer=LI1_cond $X=6.795 $Y=0.152
+ $X2=6.88 $Y2=0.152
r223 135 137 29.3583 $w=1.68e-07 $l=4.5e-07 $layer=LI1_cond $X=5.14 $Y=0.305
+ $X2=5.14 $Y2=0.755
r224 128 168 3.10218 $w=3.05e-07 $l=8.5e-08 $layer=LI1_cond $X=3.475 $Y=0.152
+ $X2=3.39 $Y2=0.152
r225 123 168 3.51065 $w=1.7e-07 $l=1.53e-07 $layer=LI1_cond $X=3.39 $Y=0.305
+ $X2=3.39 $Y2=0.152
r226 123 125 28.3797 $w=1.68e-07 $l=4.35e-07 $layer=LI1_cond $X=3.39 $Y=0.305
+ $X2=3.39 $Y2=0.74
r227 115 168 3.10218 $w=3.05e-07 $l=8.5e-08 $layer=LI1_cond $X=3.305 $Y=0.152
+ $X2=3.39 $Y2=0.152
r228 111 113 29.3583 $w=1.68e-07 $l=4.5e-07 $layer=LI1_cond $X=1.64 $Y=0.305
+ $X2=1.64 $Y2=0.755
r229 109 110 15.8697 $w=3.03e-07 $l=4.2e-07 $layer=LI1_cond $X=1.555 $Y=0.152
+ $X2=1.135 $Y2=0.152
r230 105 107 28.3797 $w=1.68e-07 $l=4.35e-07 $layer=LI1_cond $X=1.05 $Y=0.305
+ $X2=1.05 $Y2=0.74
r231 97 182 1.55 $w=1.7e-07 $l=1.02e-06 $layer=mcon $count=6 $X=7.815 $Y=0.19
+ $X2=7.815 $Y2=0.19
r232 97 180 1.55 $w=1.7e-07 $l=1.02e-06 $layer=mcon $count=6 $X=0.335 $Y=0.19
+ $X2=0.335 $Y2=0.19
r233 97 156 3.51065 $w=1.7e-07 $l=1.53e-07 $layer=LI1_cond $X=7.9 $Y=0.152
+ $X2=7.9 $Y2=0.305
r234 97 151 3.10218 $w=3.05e-07 $l=8.5e-08 $layer=LI1_cond $X=7.9 $Y=0.152
+ $X2=7.815 $Y2=0.152
r235 97 135 3.51065 $w=1.7e-07 $l=1.53e-07 $layer=LI1_cond $X=5.14 $Y=0.152
+ $X2=5.14 $Y2=0.305
r236 97 127 3.10218 $w=3.05e-07 $l=8.5e-08 $layer=LI1_cond $X=5.14 $Y=0.152
+ $X2=5.055 $Y2=0.152
r237 97 140 3.10218 $w=3.05e-07 $l=8.5e-08 $layer=LI1_cond $X=5.14 $Y=0.152
+ $X2=5.225 $Y2=0.152
r238 97 111 3.51065 $w=1.7e-07 $l=1.53e-07 $layer=LI1_cond $X=1.64 $Y=0.152
+ $X2=1.64 $Y2=0.305
r239 97 109 3.10218 $w=3.05e-07 $l=8.5e-08 $layer=LI1_cond $X=1.64 $Y=0.152
+ $X2=1.555 $Y2=0.152
r240 97 116 3.10218 $w=3.05e-07 $l=8.5e-08 $layer=LI1_cond $X=1.64 $Y=0.152
+ $X2=1.725 $Y2=0.152
r241 97 105 3.51065 $w=1.7e-07 $l=1.53e-07 $layer=LI1_cond $X=1.05 $Y=0.152
+ $X2=1.05 $Y2=0.305
r242 97 99 3.10218 $w=3.05e-07 $l=8.5e-08 $layer=LI1_cond $X=1.05 $Y=0.152
+ $X2=0.965 $Y2=0.152
r243 97 110 3.10218 $w=3.05e-07 $l=8.5e-08 $layer=LI1_cond $X=1.05 $Y=0.152
+ $X2=1.135 $Y2=0.152
r244 97 151 25.6938 $w=3.03e-07 $l=6.8e-07 $layer=LI1_cond $X=7.135 $Y=0.152
+ $X2=7.815 $Y2=0.152
r245 97 152 6.42345 $w=3.03e-07 $l=1.7e-07 $layer=LI1_cond $X=7.135 $Y=0.152
+ $X2=6.965 $Y2=0.152
r246 97 139 12.8469 $w=3.03e-07 $l=3.4e-07 $layer=LI1_cond $X=6.455 $Y=0.152
+ $X2=6.795 $Y2=0.152
r247 97 140 20.7818 $w=3.03e-07 $l=5.5e-07 $layer=LI1_cond $X=5.775 $Y=0.152
+ $X2=5.225 $Y2=0.152
r248 97 127 24.1824 $w=3.03e-07 $l=6.4e-07 $layer=LI1_cond $X=4.415 $Y=0.152
+ $X2=5.055 $Y2=0.152
r249 97 128 9.8241 $w=3.03e-07 $l=2.6e-07 $layer=LI1_cond $X=3.735 $Y=0.152
+ $X2=3.475 $Y2=0.152
r250 97 115 9.44625 $w=3.03e-07 $l=2.5e-07 $layer=LI1_cond $X=3.055 $Y=0.152
+ $X2=3.305 $Y2=0.152
r251 97 116 24.5603 $w=3.03e-07 $l=6.5e-07 $layer=LI1_cond $X=2.375 $Y=0.152
+ $X2=1.725 $Y2=0.152
r252 97 99 23.8046 $w=3.03e-07 $l=6.3e-07 $layer=LI1_cond $X=0.335 $Y=0.152
+ $X2=0.965 $Y2=0.152
r253 6 158 182 $w=1.7e-07 $l=2.24332e-07 $layer=licon1_NDIFF $count=1 $X=7.76
+ $Y=0.575 $X2=7.9 $Y2=0.74
r254 5 149 182 $w=1.7e-07 $l=2.24332e-07 $layer=licon1_NDIFF $count=1 $X=6.74
+ $Y=0.575 $X2=6.88 $Y2=0.74
r255 4 137 182 $w=1.7e-07 $l=2.4e-07 $layer=licon1_NDIFF $count=1 $X=5 $Y=0.575
+ $X2=5.14 $Y2=0.755
r256 3 125 182 $w=1.7e-07 $l=2.24332e-07 $layer=licon1_NDIFF $count=1 $X=3.25
+ $Y=0.575 $X2=3.39 $Y2=0.74
r257 2 113 182 $w=1.7e-07 $l=2.34307e-07 $layer=licon1_NDIFF $count=1 $X=1.515
+ $Y=0.575 $X2=1.64 $Y2=0.755
r258 1 107 182 $w=1.7e-07 $l=2.24332e-07 $layer=licon1_NDIFF $count=1 $X=0.91
+ $Y=0.575 $X2=1.05 $Y2=0.74
.ends

.subckt PM_SKY130_OSU_SC_12T_HS__DFFS_L%VDD 1 2 3 4 5 6 7 8 81 85 87 93 99 101
+ 109 111 119 121 127 129 135 137 143 159 162 166
r118 162 166 3.4836 $w=3.05e-07 $l=7.48e-06 $layer=MET1_cond $X=0.335 $Y=4.287
+ $X2=7.815 $Y2=4.287
r119 159 166 1.55 $w=1.7e-07 $l=1.02e-06 $layer=mcon $count=6 $X=7.815 $Y=4.25
+ $X2=7.815 $Y2=4.25
r120 148 162 1.55 $w=1.7e-07 $l=1.02e-06 $layer=mcon $count=6 $X=0.335 $Y=4.25
+ $X2=0.335 $Y2=4.25
r121 141 159 3.51065 $w=1.7e-07 $l=1.52e-07 $layer=LI1_cond $X=7.9 $Y=4.135
+ $X2=7.9 $Y2=4.287
r122 141 143 56.7594 $w=1.68e-07 $l=8.7e-07 $layer=LI1_cond $X=7.9 $Y=4.135
+ $X2=7.9 $Y2=3.265
r123 138 157 3.10218 $w=3.05e-07 $l=8.5e-08 $layer=LI1_cond $X=7.035 $Y=4.287
+ $X2=6.95 $Y2=4.287
r124 138 140 3.7785 $w=3.03e-07 $l=1e-07 $layer=LI1_cond $X=7.035 $Y=4.287
+ $X2=7.135 $Y2=4.287
r125 137 159 3.10218 $w=3.05e-07 $l=8.5e-08 $layer=LI1_cond $X=7.815 $Y=4.287
+ $X2=7.9 $Y2=4.287
r126 137 140 25.6938 $w=3.03e-07 $l=6.8e-07 $layer=LI1_cond $X=7.815 $Y=4.287
+ $X2=7.135 $Y2=4.287
r127 133 157 3.51065 $w=1.7e-07 $l=1.52e-07 $layer=LI1_cond $X=6.95 $Y=4.135
+ $X2=6.95 $Y2=4.287
r128 133 135 33.9251 $w=1.68e-07 $l=5.2e-07 $layer=LI1_cond $X=6.95 $Y=4.135
+ $X2=6.95 $Y2=3.615
r129 130 156 3.10218 $w=3.05e-07 $l=8.5e-08 $layer=LI1_cond $X=6.175 $Y=4.287
+ $X2=6.09 $Y2=4.287
r130 130 132 10.5798 $w=3.03e-07 $l=2.8e-07 $layer=LI1_cond $X=6.175 $Y=4.287
+ $X2=6.455 $Y2=4.287
r131 129 157 3.10218 $w=3.05e-07 $l=8.5e-08 $layer=LI1_cond $X=6.865 $Y=4.287
+ $X2=6.95 $Y2=4.287
r132 129 132 15.4919 $w=3.03e-07 $l=4.1e-07 $layer=LI1_cond $X=6.865 $Y=4.287
+ $X2=6.455 $Y2=4.287
r133 125 156 3.51065 $w=1.7e-07 $l=1.52e-07 $layer=LI1_cond $X=6.09 $Y=4.135
+ $X2=6.09 $Y2=4.287
r134 125 127 33.9251 $w=1.68e-07 $l=5.2e-07 $layer=LI1_cond $X=6.09 $Y=4.135
+ $X2=6.09 $Y2=3.615
r135 122 155 3.10218 $w=3.05e-07 $l=8.5e-08 $layer=LI1_cond $X=5.225 $Y=4.287
+ $X2=5.14 $Y2=4.287
r136 122 124 20.7818 $w=3.03e-07 $l=5.5e-07 $layer=LI1_cond $X=5.225 $Y=4.287
+ $X2=5.775 $Y2=4.287
r137 121 156 3.10218 $w=3.05e-07 $l=8.5e-08 $layer=LI1_cond $X=6.005 $Y=4.287
+ $X2=6.09 $Y2=4.287
r138 121 124 8.69055 $w=3.03e-07 $l=2.3e-07 $layer=LI1_cond $X=6.005 $Y=4.287
+ $X2=5.775 $Y2=4.287
r139 117 155 3.51065 $w=1.7e-07 $l=1.52e-07 $layer=LI1_cond $X=5.14 $Y=4.135
+ $X2=5.14 $Y2=4.287
r140 117 119 60.3476 $w=1.68e-07 $l=9.25e-07 $layer=LI1_cond $X=5.14 $Y=4.135
+ $X2=5.14 $Y2=3.21
r141 114 116 25.6938 $w=3.03e-07 $l=6.8e-07 $layer=LI1_cond $X=3.735 $Y=4.287
+ $X2=4.415 $Y2=4.287
r142 112 153 3.10218 $w=3.05e-07 $l=8.5e-08 $layer=LI1_cond $X=3.475 $Y=4.287
+ $X2=3.39 $Y2=4.287
r143 112 114 9.8241 $w=3.03e-07 $l=2.6e-07 $layer=LI1_cond $X=3.475 $Y=4.287
+ $X2=3.735 $Y2=4.287
r144 111 155 3.10218 $w=3.05e-07 $l=8.5e-08 $layer=LI1_cond $X=5.055 $Y=4.287
+ $X2=5.14 $Y2=4.287
r145 111 116 24.1824 $w=3.03e-07 $l=6.4e-07 $layer=LI1_cond $X=5.055 $Y=4.287
+ $X2=4.415 $Y2=4.287
r146 107 153 3.51065 $w=1.7e-07 $l=1.52e-07 $layer=LI1_cond $X=3.39 $Y=4.135
+ $X2=3.39 $Y2=4.287
r147 107 109 54.8021 $w=1.68e-07 $l=8.4e-07 $layer=LI1_cond $X=3.39 $Y=4.135
+ $X2=3.39 $Y2=3.295
r148 104 106 25.6938 $w=3.03e-07 $l=6.8e-07 $layer=LI1_cond $X=2.375 $Y=4.287
+ $X2=3.055 $Y2=4.287
r149 102 152 3.10218 $w=3.05e-07 $l=8.5e-08 $layer=LI1_cond $X=1.725 $Y=4.287
+ $X2=1.64 $Y2=4.287
r150 102 104 24.5603 $w=3.03e-07 $l=6.5e-07 $layer=LI1_cond $X=1.725 $Y=4.287
+ $X2=2.375 $Y2=4.287
r151 101 153 3.10218 $w=3.05e-07 $l=8.5e-08 $layer=LI1_cond $X=3.305 $Y=4.287
+ $X2=3.39 $Y2=4.287
r152 101 106 9.44625 $w=3.03e-07 $l=2.5e-07 $layer=LI1_cond $X=3.305 $Y=4.287
+ $X2=3.055 $Y2=4.287
r153 97 152 3.51065 $w=1.7e-07 $l=1.52e-07 $layer=LI1_cond $X=1.64 $Y=4.135
+ $X2=1.64 $Y2=4.287
r154 97 99 54.8021 $w=1.68e-07 $l=8.4e-07 $layer=LI1_cond $X=1.64 $Y=4.135
+ $X2=1.64 $Y2=3.295
r155 96 150 3.10218 $w=3.05e-07 $l=8.5e-08 $layer=LI1_cond $X=1.205 $Y=4.287
+ $X2=1.12 $Y2=4.287
r156 95 152 3.10218 $w=3.05e-07 $l=8.5e-08 $layer=LI1_cond $X=1.555 $Y=4.287
+ $X2=1.64 $Y2=4.287
r157 95 96 13.2248 $w=3.03e-07 $l=3.5e-07 $layer=LI1_cond $X=1.555 $Y=4.287
+ $X2=1.205 $Y2=4.287
r158 91 150 3.51065 $w=1.7e-07 $l=1.52e-07 $layer=LI1_cond $X=1.12 $Y=4.135
+ $X2=1.12 $Y2=4.287
r159 91 93 33.9251 $w=1.68e-07 $l=5.2e-07 $layer=LI1_cond $X=1.12 $Y=4.135
+ $X2=1.12 $Y2=3.615
r160 88 148 3.16604 $w=3.05e-07 $l=1.73e-07 $layer=LI1_cond $X=0.345 $Y=4.287
+ $X2=0.172 $Y2=4.287
r161 88 90 25.316 $w=3.03e-07 $l=6.7e-07 $layer=LI1_cond $X=0.345 $Y=4.287
+ $X2=1.015 $Y2=4.287
r162 87 150 3.10218 $w=3.05e-07 $l=8.5e-08 $layer=LI1_cond $X=1.035 $Y=4.287
+ $X2=1.12 $Y2=4.287
r163 87 90 0.7557 $w=3.03e-07 $l=2e-08 $layer=LI1_cond $X=1.035 $Y=4.287
+ $X2=1.015 $Y2=4.287
r164 83 148 4.3922 $w=1.7e-07 $l=1.90997e-07 $layer=LI1_cond $X=0.26 $Y=4.135
+ $X2=0.172 $Y2=4.287
r165 83 85 33.9251 $w=1.68e-07 $l=5.2e-07 $layer=LI1_cond $X=0.26 $Y=4.135
+ $X2=0.26 $Y2=3.615
r166 81 159 182 $w=1.7e-07 $l=2.43824e-07 $layer=licon1_NTAP_notbjt $count=1
+ $X=7.61 $Y=4.135 $X2=7.815 $Y2=4.22
r167 81 140 182 $w=1.7e-07 $l=2.43824e-07 $layer=licon1_NTAP_notbjt $count=1
+ $X=6.93 $Y=4.135 $X2=7.135 $Y2=4.22
r168 81 132 182 $w=1.7e-07 $l=2.43824e-07 $layer=licon1_NTAP_notbjt $count=1
+ $X=6.25 $Y=4.135 $X2=6.455 $Y2=4.22
r169 81 124 182 $w=1.7e-07 $l=2.43824e-07 $layer=licon1_NTAP_notbjt $count=1
+ $X=5.57 $Y=4.135 $X2=5.775 $Y2=4.22
r170 81 155 182 $w=1.7e-07 $l=2.43824e-07 $layer=licon1_NTAP_notbjt $count=1
+ $X=4.89 $Y=4.135 $X2=5.095 $Y2=4.22
r171 81 116 182 $w=1.7e-07 $l=2.43824e-07 $layer=licon1_NTAP_notbjt $count=1
+ $X=4.21 $Y=4.135 $X2=4.415 $Y2=4.22
r172 81 114 182 $w=1.7e-07 $l=2.43824e-07 $layer=licon1_NTAP_notbjt $count=1
+ $X=3.53 $Y=4.135 $X2=3.735 $Y2=4.22
r173 81 106 182 $w=1.7e-07 $l=2.43824e-07 $layer=licon1_NTAP_notbjt $count=1
+ $X=2.85 $Y=4.135 $X2=3.055 $Y2=4.22
r174 81 104 182 $w=1.7e-07 $l=2.43824e-07 $layer=licon1_NTAP_notbjt $count=1
+ $X=2.17 $Y=4.135 $X2=2.375 $Y2=4.22
r175 81 152 182 $w=1.7e-07 $l=2.43824e-07 $layer=licon1_NTAP_notbjt $count=1
+ $X=1.49 $Y=4.135 $X2=1.695 $Y2=4.22
r176 81 90 182 $w=1.7e-07 $l=2.43824e-07 $layer=licon1_NTAP_notbjt $count=1
+ $X=0.81 $Y=4.135 $X2=1.015 $Y2=4.22
r177 81 148 182 $w=1.7e-07 $l=2.43824e-07 $layer=licon1_NTAP_notbjt $count=1
+ $X=0.13 $Y=4.135 $X2=0.335 $Y2=4.22
r178 8 143 300 $w=1.7e-07 $l=3.01993e-07 $layer=licon1_PDIFF $count=2 $X=7.76
+ $Y=3.025 $X2=7.9 $Y2=3.265
r179 7 135 600 $w=1.7e-07 $l=6.56277e-07 $layer=licon1_PDIFF $count=1 $X=6.81
+ $Y=3.025 $X2=6.95 $Y2=3.615
r180 6 127 600 $w=1.7e-07 $l=6.495e-07 $layer=licon1_PDIFF $count=1 $X=5.965
+ $Y=3.025 $X2=6.09 $Y2=3.615
r181 5 119 300 $w=1.7e-07 $l=6.71361e-07 $layer=licon1_PDIFF $count=2 $X=5
+ $Y=2.605 $X2=5.14 $Y2=3.21
r182 4 109 300 $w=1.7e-07 $l=7.56769e-07 $layer=licon1_PDIFF $count=2 $X=3.25
+ $Y=2.605 $X2=3.39 $Y2=3.295
r183 3 99 300 $w=1.7e-07 $l=7.499e-07 $layer=licon1_PDIFF $count=2 $X=1.515
+ $Y=2.605 $X2=1.64 $Y2=3.295
r184 2 93 600 $w=1.7e-07 $l=6.56277e-07 $layer=licon1_PDIFF $count=1 $X=0.98
+ $Y=3.025 $X2=1.12 $Y2=3.615
r185 1 85 600 $w=1.7e-07 $l=6.495e-07 $layer=licon1_PDIFF $count=1 $X=0.135
+ $Y=3.025 $X2=0.26 $Y2=3.615
.ends

.subckt PM_SKY130_OSU_SC_12T_HS__DFFS_L%SN 3 7 9 11 14 17 24 27 33 37 38 39 41
c148 33 0 1.40809e-19 $X=6.94 $Y=1.165
c149 24 0 1.16214e-19 $X=6.94 $Y=1.27
c150 9 0 6.20383e-20 $X=6.665 $Y=1.105
r151 38 46 4.46514 $w=1.55e-07 $l=5.57237e-06 $layer=MET1_cond $X=1.405 $Y=0.985
+ $X2=6.94 $Y2=1.06
r152 38 39 1.23762 $w=1.4e-07 $l=1e-06 $layer=MET1_cond $X=1.405 $Y=0.985
+ $X2=0.405 $Y2=0.985
r153 37 41 0.0828968 $w=2.9e-07 $l=1.2e-07 $layer=MET1_cond $X=0.32 $Y=1.415
+ $X2=0.32 $Y2=1.535
r154 36 39 0.0706952 $w=1.4e-07 $l=1.14782e-07 $layer=MET1_cond $X=0.32 $Y=1.055
+ $X2=0.405 $Y2=0.985
r155 36 37 0.346638 $w=1.7e-07 $l=3.6e-07 $layer=MET1_cond $X=0.32 $Y=1.055
+ $X2=0.32 $Y2=1.415
r156 33 46 9.3 $w=1.7e-07 $l=1.7e-07 $layer=mcon $count=1 $X=6.94 $Y=1.165
+ $X2=6.94 $Y2=1.165
r157 33 35 5.20732 $w=2.46e-07 $l=1.05e-07 $layer=LI1_cond $X=6.94 $Y=1.165
+ $X2=6.94 $Y2=1.27
r158 30 41 9.3 $w=1.7e-07 $l=1.7e-07 $layer=mcon $count=1 $X=0.32 $Y=1.535
+ $X2=0.32 $Y2=1.535
r159 27 30 4.24064 $w=1.68e-07 $l=6.5e-08 $layer=LI1_cond $X=0.32 $Y=1.47
+ $X2=0.32 $Y2=1.535
r160 24 35 145.28 $w=1.7e-07 $l=1.7e-07 $layer=licon1_POLY $count=1 $X=6.94
+ $Y=1.27 $X2=6.94 $Y2=1.27
r161 22 24 35.8466 $w=3.3e-07 $l=2.05e-07 $layer=POLY_cond $X=6.735 $Y=1.27
+ $X2=6.94 $Y2=1.27
r162 20 22 12.2403 $w=3.3e-07 $l=7e-08 $layer=POLY_cond $X=6.665 $Y=1.27
+ $X2=6.735 $Y2=1.27
r163 17 27 145.28 $w=1.7e-07 $l=1.7e-07 $layer=licon1_POLY $count=1 $X=0.32
+ $Y=1.47 $X2=0.32 $Y2=1.47
r164 17 19 46.6671 $w=3.65e-07 $l=1.65e-07 $layer=POLY_cond $X=0.367 $Y=1.47
+ $X2=0.367 $Y2=1.635
r165 17 18 46.6671 $w=3.65e-07 $l=1.65e-07 $layer=POLY_cond $X=0.367 $Y=1.47
+ $X2=0.367 $Y2=1.305
r166 12 22 21.2229 $w=1.5e-07 $l=1.65e-07 $layer=POLY_cond $X=6.735 $Y=1.435
+ $X2=6.735 $Y2=1.27
r167 12 14 1030.66 $w=1.5e-07 $l=2.01e-06 $layer=POLY_cond $X=6.735 $Y=1.435
+ $X2=6.735 $Y2=3.445
r168 9 20 21.2229 $w=1.5e-07 $l=1.65e-07 $layer=POLY_cond $X=6.665 $Y=1.105
+ $X2=6.665 $Y2=1.27
r169 9 11 102.827 $w=1.5e-07 $l=3.2e-07 $layer=POLY_cond $X=6.665 $Y=1.105
+ $X2=6.665 $Y2=0.785
r170 7 19 928.106 $w=1.5e-07 $l=1.81e-06 $layer=POLY_cond $X=0.475 $Y=3.445
+ $X2=0.475 $Y2=1.635
r171 3 18 266.638 $w=1.5e-07 $l=5.2e-07 $layer=POLY_cond $X=0.475 $Y=0.785
+ $X2=0.475 $Y2=1.305
.ends

.subckt PM_SKY130_OSU_SC_12T_HS__DFFS_L%A_152_89# 1 3 11 15 21 26 27 28 29 30 32
+ 35 39
c92 39 0 1.72079e-19 $X=2.415 $Y=0.755
c93 11 0 6.20383e-20 $X=0.835 $Y=0.785
r94 39 41 3.47578 $w=3.51e-07 $l=1e-07 $layer=LI1_cond $X=2.415 $Y=0.755
+ $X2=2.515 $Y2=0.755
r95 35 37 23.0489 $w=3.38e-07 $l=6.8e-07 $layer=LI1_cond $X=2.515 $Y=2.955
+ $X2=2.515 $Y2=3.635
r96 33 35 5.59274 $w=3.38e-07 $l=1.65e-07 $layer=LI1_cond $X=2.515 $Y=2.79
+ $X2=2.515 $Y2=2.955
r97 31 39 4.99104 $w=1.7e-07 $l=1.8e-07 $layer=LI1_cond $X=2.415 $Y=0.935
+ $X2=2.415 $Y2=0.755
r98 31 32 17.2888 $w=1.68e-07 $l=2.65e-07 $layer=LI1_cond $X=2.415 $Y=0.935
+ $X2=2.415 $Y2=1.2
r99 29 33 7.85115 $w=1.7e-07 $l=2.08207e-07 $layer=LI1_cond $X=2.345 $Y=2.705
+ $X2=2.515 $Y2=2.79
r100 29 30 80.246 $w=1.68e-07 $l=1.23e-06 $layer=LI1_cond $X=2.345 $Y=2.705
+ $X2=1.115 $Y2=2.705
r101 27 32 6.81649 $w=1.7e-07 $l=1.20208e-07 $layer=LI1_cond $X=2.33 $Y=1.285
+ $X2=2.415 $Y2=1.2
r102 27 28 79.2674 $w=1.68e-07 $l=1.215e-06 $layer=LI1_cond $X=2.33 $Y=1.285
+ $X2=1.115 $Y2=1.285
r103 24 30 6.81649 $w=1.7e-07 $l=1.20208e-07 $layer=LI1_cond $X=1.03 $Y=2.62
+ $X2=1.115 $Y2=2.705
r104 24 26 45.3422 $w=1.68e-07 $l=6.95e-07 $layer=LI1_cond $X=1.03 $Y=2.62
+ $X2=1.03 $Y2=1.925
r105 23 28 6.81649 $w=1.7e-07 $l=1.20208e-07 $layer=LI1_cond $X=1.03 $Y=1.37
+ $X2=1.115 $Y2=1.285
r106 23 26 36.2086 $w=1.68e-07 $l=5.55e-07 $layer=LI1_cond $X=1.03 $Y=1.37
+ $X2=1.03 $Y2=1.925
r107 21 26 145.28 $w=1.7e-07 $l=1.7e-07 $layer=licon1_POLY $count=1 $X=1.03
+ $Y=1.925 $X2=1.03 $Y2=1.925
r108 19 21 21.8577 $w=3.3e-07 $l=1.25e-07 $layer=POLY_cond $X=0.905 $Y=1.925
+ $X2=1.03 $Y2=1.925
r109 17 19 12.2403 $w=3.3e-07 $l=7e-08 $layer=POLY_cond $X=0.835 $Y=1.925
+ $X2=0.905 $Y2=1.925
r110 13 19 21.2229 $w=1.5e-07 $l=1.65e-07 $layer=POLY_cond $X=0.905 $Y=2.09
+ $X2=0.905 $Y2=1.925
r111 13 15 694.798 $w=1.5e-07 $l=1.355e-06 $layer=POLY_cond $X=0.905 $Y=2.09
+ $X2=0.905 $Y2=3.445
r112 9 17 21.2229 $w=1.5e-07 $l=1.65e-07 $layer=POLY_cond $X=0.835 $Y=1.76
+ $X2=0.835 $Y2=1.925
r113 9 11 499.947 $w=1.5e-07 $l=9.75e-07 $layer=POLY_cond $X=0.835 $Y=1.76
+ $X2=0.835 $Y2=0.785
r114 3 37 400 $w=1.7e-07 $l=1.13695e-06 $layer=licon1_PDIFF $count=1 $X=2.29
+ $Y=2.605 $X2=2.515 $Y2=3.635
r115 3 35 400 $w=1.7e-07 $l=4.48609e-07 $layer=licon1_PDIFF $count=1 $X=2.29
+ $Y=2.605 $X2=2.515 $Y2=2.955
r116 1 41 182 $w=1.7e-07 $l=3.01869e-07 $layer=licon1_NDIFF $count=1 $X=2.29
+ $Y=0.575 $X2=2.515 $Y2=0.755
.ends

.subckt PM_SKY130_OSU_SC_12T_HS__DFFS_L%D 3 7 10 14 19
c41 19 0 1.36979e-19 $X=1.915 $Y=1.74
c42 10 0 1.98306e-19 $X=1.915 $Y=1.74
r43 14 19 9.3 $w=1.7e-07 $l=1.7e-07 $layer=mcon $count=1 $X=1.915 $Y=1.74
+ $X2=1.915 $Y2=1.74
r44 10 14 145.28 $w=1.7e-07 $l=1.7e-07 $layer=licon1_POLY $count=1 $X=1.915
+ $Y=1.74 $X2=1.915 $Y2=1.74
r45 10 12 48.4159 $w=2.7e-07 $l=1.65e-07 $layer=POLY_cond $X=1.915 $Y=1.74
+ $X2=1.915 $Y2=1.905
r46 10 11 48.4159 $w=2.7e-07 $l=1.65e-07 $layer=POLY_cond $X=1.915 $Y=1.74
+ $X2=1.915 $Y2=1.575
r47 7 12 681.979 $w=1.5e-07 $l=1.33e-06 $layer=POLY_cond $X=1.855 $Y=3.235
+ $X2=1.855 $Y2=1.905
r48 3 11 371.755 $w=1.5e-07 $l=7.25e-07 $layer=POLY_cond $X=1.855 $Y=0.85
+ $X2=1.855 $Y2=1.575
.ends

.subckt PM_SKY130_OSU_SC_12T_HS__DFFS_L%CK 3 7 10 13 17 18 20 23 25 29 30 33 34
+ 37 40 41 44 48 52 54 55 57 63 67 70 71 72 73 80
c232 73 0 1.48522e-19 $X=4.65 $Y=2.11
c233 72 0 1.65829e-19 $X=5.355 $Y=2.11
c234 71 0 1.48522e-19 $X=2.42 $Y=2.11
c235 70 0 1.97877e-19 $X=4.36 $Y=2.11
c236 55 0 6.91727e-20 $X=4.11 $Y=2.11
c237 54 0 8.34006e-20 $X=4.39 $Y=2.11
c238 52 0 1.54708e-19 $X=4.025 $Y=1.4
c239 48 0 3.67809e-19 $X=2.755 $Y=1.4
c240 44 0 1.89329e-19 $X=2.67 $Y=2.11
c241 37 0 1.18241e-19 $X=4.475 $Y=2.285
c242 33 0 8.96132e-20 $X=4.025 $Y=1.4
c243 25 0 1.36979e-19 $X=2.305 $Y=2.285
r244 73 78 0.103375 $w=2.3e-07 $l=1.45e-07 $layer=MET1_cond $X=4.65 $Y=2.11
+ $X2=4.505 $Y2=2.11
r245 72 80 0.103375 $w=2.3e-07 $l=1.45e-07 $layer=MET1_cond $X=5.355 $Y=2.11
+ $X2=5.5 $Y2=2.11
r246 72 73 0.678832 $w=1.7e-07 $l=7.05e-07 $layer=MET1_cond $X=5.355 $Y=2.11
+ $X2=4.65 $Y2=2.11
r247 71 75 0.103375 $w=2.3e-07 $l=1.45e-07 $layer=MET1_cond $X=2.42 $Y=2.11
+ $X2=2.275 $Y2=2.11
r248 70 78 0.103375 $w=2.3e-07 $l=1.45e-07 $layer=MET1_cond $X=4.36 $Y=2.11
+ $X2=4.505 $Y2=2.11
r249 70 71 1.86799 $w=1.7e-07 $l=1.94e-06 $layer=MET1_cond $X=4.36 $Y=2.11
+ $X2=2.42 $Y2=2.11
r250 67 78 9.3 $w=1.7e-07 $l=1.7e-07 $layer=mcon $count=1 $X=4.505 $Y=2.11
+ $X2=4.505 $Y2=2.11
r251 67 69 11.7308 $w=1.82e-07 $l=1.75e-07 $layer=LI1_cond $X=4.49 $Y=2.11
+ $X2=4.49 $Y2=2.285
r252 63 75 9.3 $w=1.7e-07 $l=1.7e-07 $layer=mcon $count=1 $X=2.275 $Y=2.11
+ $X2=2.275 $Y2=2.11
r253 63 65 11.7308 $w=1.82e-07 $l=1.75e-07 $layer=LI1_cond $X=2.29 $Y=2.11
+ $X2=2.29 $Y2=2.285
r254 57 80 9.3 $w=1.7e-07 $l=1.7e-07 $layer=mcon $count=1 $X=5.5 $Y=2.11 $X2=5.5
+ $Y2=2.11
r255 57 60 11.4171 $w=1.68e-07 $l=1.75e-07 $layer=LI1_cond $X=5.5 $Y=2.11
+ $X2=5.5 $Y2=2.285
r256 54 67 1.129 $w=1.7e-07 $l=1e-07 $layer=LI1_cond $X=4.39 $Y=2.11 $X2=4.49
+ $Y2=2.11
r257 54 55 18.2674 $w=1.68e-07 $l=2.8e-07 $layer=LI1_cond $X=4.39 $Y=2.11
+ $X2=4.11 $Y2=2.11
r258 50 55 6.81649 $w=1.7e-07 $l=1.20208e-07 $layer=LI1_cond $X=4.025 $Y=2.025
+ $X2=4.11 $Y2=2.11
r259 50 52 40.7754 $w=1.68e-07 $l=6.25e-07 $layer=LI1_cond $X=4.025 $Y=2.025
+ $X2=4.025 $Y2=1.4
r260 46 48 40.7754 $w=1.68e-07 $l=6.25e-07 $layer=LI1_cond $X=2.755 $Y=2.025
+ $X2=2.755 $Y2=1.4
r261 45 63 1.129 $w=1.7e-07 $l=1e-07 $layer=LI1_cond $X=2.39 $Y=2.11 $X2=2.29
+ $Y2=2.11
r262 44 46 6.81649 $w=1.7e-07 $l=1.20208e-07 $layer=LI1_cond $X=2.67 $Y=2.11
+ $X2=2.755 $Y2=2.025
r263 44 45 18.2674 $w=1.68e-07 $l=2.8e-07 $layer=LI1_cond $X=2.67 $Y=2.11
+ $X2=2.39 $Y2=2.11
r264 43 60 145.28 $w=1.7e-07 $l=1.7e-07 $layer=licon1_POLY $count=1 $X=5.5
+ $Y=2.285 $X2=5.5 $Y2=2.285
r265 40 41 48.5235 $w=2.05e-07 $l=1.5e-07 $layer=POLY_cond $X=5.382 $Y=1.205
+ $X2=5.382 $Y2=1.355
r266 37 69 145.28 $w=1.7e-07 $l=1.7e-07 $layer=licon1_POLY $count=1 $X=4.475
+ $Y=2.285 $X2=4.475 $Y2=2.285
r267 37 39 46.2115 $w=3.3e-07 $l=1.65e-07 $layer=POLY_cond $X=4.475 $Y=2.285
+ $X2=4.475 $Y2=2.45
r268 33 52 145.28 $w=1.7e-07 $l=1.7e-07 $layer=licon1_POLY $count=1 $X=4.025
+ $Y=1.4 $X2=4.025 $Y2=1.4
r269 33 34 48.4159 $w=2.7e-07 $l=1.65e-07 $layer=POLY_cond $X=4.025 $Y=1.4
+ $X2=4.025 $Y2=1.235
r270 29 48 145.28 $w=1.7e-07 $l=1.7e-07 $layer=licon1_POLY $count=1 $X=2.755
+ $Y=1.4 $X2=2.755 $Y2=1.4
r271 29 30 48.4159 $w=2.7e-07 $l=1.65e-07 $layer=POLY_cond $X=2.755 $Y=1.4
+ $X2=2.755 $Y2=1.235
r272 25 65 145.28 $w=1.7e-07 $l=1.7e-07 $layer=licon1_POLY $count=1 $X=2.305
+ $Y=2.285 $X2=2.305 $Y2=2.285
r273 25 27 46.2115 $w=3.3e-07 $l=1.65e-07 $layer=POLY_cond $X=2.305 $Y=2.285
+ $X2=2.305 $Y2=2.45
r274 23 43 38.571 $w=3.25e-07 $l=1.87029e-07 $layer=POLY_cond $X=5.41 $Y=2.12
+ $X2=5.457 $Y2=2.285
r275 23 41 392.266 $w=1.5e-07 $l=7.65e-07 $layer=POLY_cond $X=5.41 $Y=2.12
+ $X2=5.41 $Y2=1.355
r276 18 43 38.571 $w=3.25e-07 $l=2.09893e-07 $layer=POLY_cond $X=5.355 $Y=2.45
+ $X2=5.457 $Y2=2.285
r277 18 20 402.521 $w=1.5e-07 $l=7.85e-07 $layer=POLY_cond $X=5.355 $Y=2.45
+ $X2=5.355 $Y2=3.235
r278 17 40 114.073 $w=1.5e-07 $l=3.55e-07 $layer=POLY_cond $X=5.355 $Y=0.85
+ $X2=5.355 $Y2=1.205
r279 13 39 402.521 $w=1.5e-07 $l=7.85e-07 $layer=POLY_cond $X=4.565 $Y=3.235
+ $X2=4.565 $Y2=2.45
r280 10 34 123.713 $w=1.5e-07 $l=3.85e-07 $layer=POLY_cond $X=3.965 $Y=0.85
+ $X2=3.965 $Y2=1.235
r281 7 30 123.713 $w=1.5e-07 $l=3.85e-07 $layer=POLY_cond $X=2.815 $Y=0.85
+ $X2=2.815 $Y2=1.235
r282 3 27 402.521 $w=1.5e-07 $l=7.85e-07 $layer=POLY_cond $X=2.215 $Y=3.235
+ $X2=2.215 $Y2=2.45
.ends

.subckt PM_SKY130_OSU_SC_12T_HS__DFFS_L%A_27_115# 1 3 11 15 17 18 21 22 27 31 33
+ 37 43 46 53 55 56 57 59 62
c140 62 0 8.30528e-20 $X=3.255 $Y=1.37
c141 56 0 1.42775e-19 $X=3.11 $Y=1.37
c142 53 0 8.96132e-20 $X=3.345 $Y=1.4
c143 46 0 6.20383e-20 $X=0.26 $Y=0.74
c144 43 0 1.5821e-19 $X=3.345 $Y=2.285
c145 31 0 6.36774e-20 $X=3.605 $Y=3.235
c146 27 0 1.54708e-19 $X=3.605 $Y=0.85
c147 22 0 1.89329e-19 $X=3.25 $Y=2.285
c148 21 0 6.91727e-20 $X=3.53 $Y=2.285
c149 15 0 6.36774e-20 $X=3.175 $Y=3.235
r150 56 62 0.103375 $w=2.3e-07 $l=1.45e-07 $layer=MET1_cond $X=3.11 $Y=1.37
+ $X2=3.255 $Y2=1.37
r151 56 57 2.24833 $w=1.7e-07 $l=2.335e-06 $layer=MET1_cond $X=3.11 $Y=1.37
+ $X2=0.775 $Y2=1.37
r152 55 59 0.0804477 $w=2.9e-07 $l=1.15e-07 $layer=MET1_cond $X=0.69 $Y=1.79
+ $X2=0.69 $Y2=1.905
r153 54 57 0.0698411 $w=1.7e-07 $l=1.20208e-07 $layer=MET1_cond $X=0.69 $Y=1.455
+ $X2=0.775 $Y2=1.37
r154 54 55 0.322566 $w=1.7e-07 $l=3.35e-07 $layer=MET1_cond $X=0.69 $Y=1.455
+ $X2=0.69 $Y2=1.79
r155 51 62 9.3 $w=1.7e-07 $l=1.7e-07 $layer=mcon $count=1 $X=3.255 $Y=1.37
+ $X2=3.255 $Y2=1.37
r156 51 53 5.43564 $w=2.02e-07 $l=9e-08 $layer=LI1_cond $X=3.255 $Y=1.345
+ $X2=3.345 $Y2=1.345
r157 46 48 11.0909 $w=1.68e-07 $l=1.7e-07 $layer=LI1_cond $X=0.26 $Y=0.74
+ $X2=0.26 $Y2=0.91
r158 41 53 1.74864 $w=1.7e-07 $l=1.1e-07 $layer=LI1_cond $X=3.345 $Y=1.455
+ $X2=3.345 $Y2=1.345
r159 41 43 54.1497 $w=1.68e-07 $l=8.3e-07 $layer=LI1_cond $X=3.345 $Y=1.455
+ $X2=3.345 $Y2=2.285
r160 37 59 9.3 $w=1.7e-07 $l=1.7e-07 $layer=mcon $count=1 $X=0.69 $Y=1.905
+ $X2=0.69 $Y2=1.905
r161 37 39 111.561 $w=1.68e-07 $l=1.71e-06 $layer=LI1_cond $X=0.69 $Y=1.905
+ $X2=0.69 $Y2=3.615
r162 35 37 59.369 $w=1.68e-07 $l=9.1e-07 $layer=LI1_cond $X=0.69 $Y=0.995
+ $X2=0.69 $Y2=1.905
r163 34 48 0.716491 $w=1.7e-07 $l=8.5e-08 $layer=LI1_cond $X=0.345 $Y=0.91
+ $X2=0.26 $Y2=0.91
r164 33 35 6.81649 $w=1.7e-07 $l=1.20208e-07 $layer=LI1_cond $X=0.605 $Y=0.91
+ $X2=0.69 $Y2=0.995
r165 33 34 16.9626 $w=1.68e-07 $l=2.6e-07 $layer=LI1_cond $X=0.605 $Y=0.91
+ $X2=0.345 $Y2=0.91
r166 29 31 417.904 $w=1.5e-07 $l=8.15e-07 $layer=POLY_cond $X=3.605 $Y=2.42
+ $X2=3.605 $Y2=3.235
r167 25 27 212.798 $w=1.5e-07 $l=4.15e-07 $layer=POLY_cond $X=3.605 $Y=1.265
+ $X2=3.605 $Y2=0.85
r168 24 43 145.28 $w=1.7e-07 $l=1.7e-07 $layer=licon1_POLY $count=1 $X=3.345
+ $Y=2.285 $X2=3.345 $Y2=2.285
r169 22 24 21.1065 $w=2.7e-07 $l=9.5e-08 $layer=POLY_cond $X=3.25 $Y=2.285
+ $X2=3.345 $Y2=2.285
r170 21 29 29.8935 $w=2.7e-07 $l=1.68375e-07 $layer=POLY_cond $X=3.53 $Y=2.285
+ $X2=3.605 $Y2=2.42
r171 21 24 41.1021 $w=2.7e-07 $l=1.85e-07 $layer=POLY_cond $X=3.53 $Y=2.285
+ $X2=3.345 $Y2=2.285
r172 20 53 145.28 $w=1.7e-07 $l=1.7e-07 $layer=licon1_POLY $count=1 $X=3.345
+ $Y=1.4 $X2=3.345 $Y2=1.4
r173 18 20 21.1065 $w=2.7e-07 $l=9.5e-08 $layer=POLY_cond $X=3.25 $Y=1.4
+ $X2=3.345 $Y2=1.4
r174 17 25 29.8935 $w=2.7e-07 $l=1.68375e-07 $layer=POLY_cond $X=3.53 $Y=1.4
+ $X2=3.605 $Y2=1.265
r175 17 20 41.1021 $w=2.7e-07 $l=1.85e-07 $layer=POLY_cond $X=3.53 $Y=1.4
+ $X2=3.345 $Y2=1.4
r176 13 22 29.8935 $w=2.7e-07 $l=1.68375e-07 $layer=POLY_cond $X=3.175 $Y=2.42
+ $X2=3.25 $Y2=2.285
r177 13 15 417.904 $w=1.5e-07 $l=8.15e-07 $layer=POLY_cond $X=3.175 $Y=2.42
+ $X2=3.175 $Y2=3.235
r178 9 18 29.8935 $w=2.7e-07 $l=1.68375e-07 $layer=POLY_cond $X=3.175 $Y=1.265
+ $X2=3.25 $Y2=1.4
r179 9 11 212.798 $w=1.5e-07 $l=4.15e-07 $layer=POLY_cond $X=3.175 $Y=1.265
+ $X2=3.175 $Y2=0.85
r180 3 39 600 $w=1.7e-07 $l=6.56277e-07 $layer=licon1_PDIFF $count=1 $X=0.55
+ $Y=3.025 $X2=0.69 $Y2=3.615
r181 1 46 182 $w=1.7e-07 $l=2.18746e-07 $layer=licon1_NDIFF $count=1 $X=0.135
+ $Y=0.575 $X2=0.26 $Y2=0.74
.ends

.subckt PM_SKY130_OSU_SC_12T_HS__DFFS_L%A_428_89# 1 3 9 11 13 14 15 18 20 24 26
+ 30 34 36 37 39 44 50 54 59 62 66 68 69 74
c197 69 0 1.26844e-19 $X=4.65 $Y=1.74
c198 44 0 3.63706e-19 $X=4.505 $Y=1.74
c199 39 0 1.59107e-19 $X=4.505 $Y=1.74
c200 34 0 1.69503e-19 $X=2.335 $Y=1.28
c201 24 0 1.48522e-19 $X=3.965 $Y=3.235
c202 18 0 1.48522e-19 $X=2.815 $Y=3.235
r203 69 71 0.103375 $w=2.3e-07 $l=1.45e-07 $layer=MET1_cond $X=4.65 $Y=1.74
+ $X2=4.505 $Y2=1.74
r204 68 74 0.0841272 $w=2.3e-07 $l=1.15e-07 $layer=MET1_cond $X=5.405 $Y=1.74
+ $X2=5.52 $Y2=1.74
r205 68 69 0.726976 $w=1.7e-07 $l=7.55e-07 $layer=MET1_cond $X=5.405 $Y=1.74
+ $X2=4.65 $Y2=1.74
r206 66 67 19.0625 $w=1.76e-07 $l=2.75e-07 $layer=LI1_cond $X=5.57 $Y=1.755
+ $X2=5.845 $Y2=1.755
r207 65 74 9.3 $w=1.7e-07 $l=1.7e-07 $layer=mcon $count=1 $X=5.52 $Y=1.74
+ $X2=5.52 $Y2=1.74
r208 65 66 3.46591 $w=1.76e-07 $l=5e-08 $layer=LI1_cond $X=5.52 $Y=1.755
+ $X2=5.57 $Y2=1.755
r209 60 62 17.9412 $w=1.68e-07 $l=2.75e-07 $layer=LI1_cond $X=5.57 $Y=2.705
+ $X2=5.845 $Y2=2.705
r210 59 62 0.364908 $w=1.8e-07 $l=8.5e-08 $layer=LI1_cond $X=5.845 $Y=2.62
+ $X2=5.845 $Y2=2.705
r211 58 67 0.578974 $w=1.8e-07 $l=1e-07 $layer=LI1_cond $X=5.845 $Y=1.855
+ $X2=5.845 $Y2=1.755
r212 58 59 47.1364 $w=1.78e-07 $l=7.65e-07 $layer=LI1_cond $X=5.845 $Y=1.855
+ $X2=5.845 $Y2=2.62
r213 54 56 44.3636 $w=1.68e-07 $l=6.8e-07 $layer=LI1_cond $X=5.57 $Y=2.955
+ $X2=5.57 $Y2=3.635
r214 52 60 0.716491 $w=1.7e-07 $l=8.5e-08 $layer=LI1_cond $X=5.57 $Y=2.79
+ $X2=5.57 $Y2=2.705
r215 52 54 10.7647 $w=1.68e-07 $l=1.65e-07 $layer=LI1_cond $X=5.57 $Y=2.79
+ $X2=5.57 $Y2=2.955
r216 48 66 0.927112 $w=1.7e-07 $l=1e-07 $layer=LI1_cond $X=5.57 $Y=1.655
+ $X2=5.57 $Y2=1.755
r217 48 50 58.7166 $w=1.68e-07 $l=9e-07 $layer=LI1_cond $X=5.57 $Y=1.655
+ $X2=5.57 $Y2=0.755
r218 44 71 9.3 $w=1.7e-07 $l=1.7e-07 $layer=mcon $count=1 $X=4.505 $Y=1.74
+ $X2=4.505 $Y2=1.74
r219 39 44 145.28 $w=1.7e-07 $l=1.7e-07 $layer=licon1_POLY $count=1 $X=4.505
+ $Y=1.74 $X2=4.505 $Y2=1.74
r220 39 41 24.4391 $w=2.7e-07 $l=1.1e-07 $layer=POLY_cond $X=4.505 $Y=1.74
+ $X2=4.505 $Y2=1.85
r221 39 40 50.6376 $w=2.7e-07 $l=1.75e-07 $layer=POLY_cond $X=4.505 $Y=1.74
+ $X2=4.505 $Y2=1.565
r222 32 34 61.5319 $w=1.5e-07 $l=1.2e-07 $layer=POLY_cond $X=2.215 $Y=1.28
+ $X2=2.335 $Y2=1.28
r223 30 40 366.628 $w=1.5e-07 $l=7.15e-07 $layer=POLY_cond $X=4.565 $Y=0.85
+ $X2=4.565 $Y2=1.565
r224 27 37 20.4101 $w=1.5e-07 $l=7.5e-08 $layer=POLY_cond $X=4.04 $Y=1.85
+ $X2=3.965 $Y2=1.85
r225 26 41 16.5046 $w=1.5e-07 $l=1.35e-07 $layer=POLY_cond $X=4.37 $Y=1.85
+ $X2=4.505 $Y2=1.85
r226 26 27 169.213 $w=1.5e-07 $l=3.3e-07 $layer=POLY_cond $X=4.37 $Y=1.85
+ $X2=4.04 $Y2=1.85
r227 22 37 5.30422 $w=1.5e-07 $l=7.5e-08 $layer=POLY_cond $X=3.965 $Y=1.925
+ $X2=3.965 $Y2=1.85
r228 22 24 671.723 $w=1.5e-07 $l=1.31e-06 $layer=POLY_cond $X=3.965 $Y=1.925
+ $X2=3.965 $Y2=3.235
r229 21 36 20.4101 $w=1.5e-07 $l=7.5e-08 $layer=POLY_cond $X=2.89 $Y=1.85
+ $X2=2.815 $Y2=1.85
r230 20 37 20.4101 $w=1.5e-07 $l=7.5e-08 $layer=POLY_cond $X=3.89 $Y=1.85
+ $X2=3.965 $Y2=1.85
r231 20 21 512.766 $w=1.5e-07 $l=1e-06 $layer=POLY_cond $X=3.89 $Y=1.85 $X2=2.89
+ $Y2=1.85
r232 16 36 5.30422 $w=1.5e-07 $l=7.5e-08 $layer=POLY_cond $X=2.815 $Y=1.925
+ $X2=2.815 $Y2=1.85
r233 16 18 671.723 $w=1.5e-07 $l=1.31e-06 $layer=POLY_cond $X=2.815 $Y=1.925
+ $X2=2.815 $Y2=3.235
r234 14 36 20.4101 $w=1.5e-07 $l=7.5e-08 $layer=POLY_cond $X=2.74 $Y=1.85
+ $X2=2.815 $Y2=1.85
r235 14 15 169.213 $w=1.5e-07 $l=3.3e-07 $layer=POLY_cond $X=2.74 $Y=1.85
+ $X2=2.41 $Y2=1.85
r236 13 15 26.9307 $w=1.5e-07 $l=1.06066e-07 $layer=POLY_cond $X=2.335 $Y=1.775
+ $X2=2.41 $Y2=1.85
r237 12 34 2.83073 $w=1.5e-07 $l=7.5e-08 $layer=POLY_cond $X=2.335 $Y=1.355
+ $X2=2.335 $Y2=1.28
r238 12 13 215.362 $w=1.5e-07 $l=4.2e-07 $layer=POLY_cond $X=2.335 $Y=1.355
+ $X2=2.335 $Y2=1.775
r239 9 32 2.83073 $w=1.5e-07 $l=7.5e-08 $layer=POLY_cond $X=2.215 $Y=1.205
+ $X2=2.215 $Y2=1.28
r240 9 11 114.073 $w=1.5e-07 $l=3.55e-07 $layer=POLY_cond $X=2.215 $Y=1.205
+ $X2=2.215 $Y2=0.85
r241 3 56 400 $w=1.7e-07 $l=1.09777e-06 $layer=licon1_PDIFF $count=1 $X=5.43
+ $Y=2.605 $X2=5.57 $Y2=3.635
r242 3 54 400 $w=1.7e-07 $l=4.14126e-07 $layer=licon1_PDIFF $count=1 $X=5.43
+ $Y=2.605 $X2=5.57 $Y2=2.955
r243 1 50 182 $w=1.7e-07 $l=2.4e-07 $layer=licon1_NDIFF $count=1 $X=5.43
+ $Y=0.575 $X2=5.57 $Y2=0.755
.ends

.subckt PM_SKY130_OSU_SC_12T_HS__DFFS_L%A_970_89# 1 3 11 15 23 27 30 34 35 38 39
+ 40 42 47 50 53 57 61 65 66 67 69 70 71 76
c198 61 0 6.20383e-20 $X=6.09 $Y=0.74
c199 42 0 1.6261e-19 $X=4.985 $Y=1.71
c200 39 0 8.77106e-20 $X=7.66 $Y=2.375
c201 38 0 1.40809e-19 $X=7.66 $Y=1.32
c202 34 0 2.20654e-19 $X=7.57 $Y=1.71
r203 70 76 0.103375 $w=2.3e-07 $l=1.45e-07 $layer=MET1_cond $X=7.425 $Y=1.71
+ $X2=7.57 $Y2=1.71