* File: sky130_osu_sc_12T_hs__dffr_l.pex.spice
* Created: Fri Nov 12 15:09:21 2021
* Program "Calibre xRC"
* Version "v2021.2_28.15"
* Nominal Temperature: 27C
* Circuit Temperature: 27C
* 
.subckt PM_SKY130_OSU_SC_12T_HS__DFFR_L%GND 1 2 3 4 5 6 7 8 9 121 125 127 134
+ 136 143 145 152 154 164 166 176 178 185 187 194 196 203 230 232
c247 194 0 6.51688e-20 $X=7.9 $Y=0.74
c248 176 0 1.71621e-19 $X=6.09 $Y=0.755
c249 152 0 3.07651e-19 $X=2.59 $Y=0.755
c250 134 0 6.22049e-20 $X=1.21 $Y=0.74
c251 121 0 2.41708e-19 $X=-0.05 $Y=0
r252 230 232 4.11698 $w=3.05e-07 $l=8.84e-06 $layer=MET1_cond $X=0.335 $Y=0.152
+ $X2=9.175 $Y2=0.152
r253 205 226 3.10218 $w=3.05e-07 $l=8.5e-08 $layer=LI1_cond $X=8.935 $Y=0.152
+ $X2=8.85 $Y2=0.152
r254 201 226 3.51065 $w=1.7e-07 $l=1.53e-07 $layer=LI1_cond $X=8.85 $Y=0.305
+ $X2=8.85 $Y2=0.152
r255 201 203 28.3797 $w=1.68e-07 $l=4.35e-07 $layer=LI1_cond $X=8.85 $Y=0.305
+ $X2=8.85 $Y2=0.74
r256 196 226 3.10218 $w=3.05e-07 $l=8.5e-08 $layer=LI1_cond $X=8.765 $Y=0.152
+ $X2=8.85 $Y2=0.152
r257 192 194 28.3797 $w=1.68e-07 $l=4.35e-07 $layer=LI1_cond $X=7.9 $Y=0.305
+ $X2=7.9 $Y2=0.74
r258 188 222 3.10218 $w=3.05e-07 $l=8.5e-08 $layer=LI1_cond $X=7.125 $Y=0.152
+ $X2=7.04 $Y2=0.152
r259 183 222 3.51065 $w=1.7e-07 $l=1.53e-07 $layer=LI1_cond $X=7.04 $Y=0.305
+ $X2=7.04 $Y2=0.152
r260 183 185 28.3797 $w=1.68e-07 $l=4.35e-07 $layer=LI1_cond $X=7.04 $Y=0.305
+ $X2=7.04 $Y2=0.74
r261 179 221 3.10218 $w=3.05e-07 $l=8.5e-08 $layer=LI1_cond $X=6.175 $Y=0.152
+ $X2=6.09 $Y2=0.152
r262 178 222 3.10218 $w=3.05e-07 $l=8.5e-08 $layer=LI1_cond $X=6.955 $Y=0.152
+ $X2=7.04 $Y2=0.152
r263 174 221 3.51065 $w=1.7e-07 $l=1.53e-07 $layer=LI1_cond $X=6.09 $Y=0.305
+ $X2=6.09 $Y2=0.152
r264 174 176 29.3583 $w=1.68e-07 $l=4.5e-07 $layer=LI1_cond $X=6.09 $Y=0.305
+ $X2=6.09 $Y2=0.755
r265 166 221 3.10218 $w=3.05e-07 $l=8.5e-08 $layer=LI1_cond $X=6.005 $Y=0.152
+ $X2=6.09 $Y2=0.152
r266 162 164 28.3797 $w=1.68e-07 $l=4.35e-07 $layer=LI1_cond $X=4.34 $Y=0.305
+ $X2=4.34 $Y2=0.74
r267 155 217 3.10218 $w=3.05e-07 $l=8.5e-08 $layer=LI1_cond $X=2.675 $Y=0.152
+ $X2=2.59 $Y2=0.152
r268 150 217 3.51065 $w=1.7e-07 $l=1.53e-07 $layer=LI1_cond $X=2.59 $Y=0.305
+ $X2=2.59 $Y2=0.152
r269 150 152 29.3583 $w=1.68e-07 $l=4.5e-07 $layer=LI1_cond $X=2.59 $Y=0.305
+ $X2=2.59 $Y2=0.755
r270 146 216 3.10218 $w=3.05e-07 $l=8.5e-08 $layer=LI1_cond $X=2.155 $Y=0.152
+ $X2=2.07 $Y2=0.152
r271 145 217 3.10218 $w=3.05e-07 $l=8.5e-08 $layer=LI1_cond $X=2.505 $Y=0.152
+ $X2=2.59 $Y2=0.152
r272 141 216 3.51065 $w=1.7e-07 $l=1.53e-07 $layer=LI1_cond $X=2.07 $Y=0.305
+ $X2=2.07 $Y2=0.152
r273 141 143 28.3797 $w=1.68e-07 $l=4.35e-07 $layer=LI1_cond $X=2.07 $Y=0.305
+ $X2=2.07 $Y2=0.74
r274 137 215 3.10218 $w=3.05e-07 $l=8.5e-08 $layer=LI1_cond $X=1.295 $Y=0.152
+ $X2=1.21 $Y2=0.152
r275 136 216 3.10218 $w=3.05e-07 $l=8.5e-08 $layer=LI1_cond $X=1.985 $Y=0.152
+ $X2=2.07 $Y2=0.152
r276 132 215 3.51065 $w=1.7e-07 $l=1.53e-07 $layer=LI1_cond $X=1.21 $Y=0.305
+ $X2=1.21 $Y2=0.152
r277 132 134 28.3797 $w=1.68e-07 $l=4.35e-07 $layer=LI1_cond $X=1.21 $Y=0.305
+ $X2=1.21 $Y2=0.74
r278 127 215 3.10218 $w=3.05e-07 $l=8.5e-08 $layer=LI1_cond $X=1.125 $Y=0.152
+ $X2=1.21 $Y2=0.152
r279 123 125 29.3583 $w=1.68e-07 $l=4.5e-07 $layer=LI1_cond $X=0.26 $Y=0.305
+ $X2=0.26 $Y2=0.755
r280 121 232 1.32857 $w=1.7e-07 $l=1.19e-06 $layer=mcon $count=7 $X=9.175
+ $Y=0.19 $X2=9.175 $Y2=0.19
r281 121 230 1.32857 $w=1.7e-07 $l=1.19e-06 $layer=mcon $count=7 $X=0.335
+ $Y=0.19 $X2=0.335 $Y2=0.19
r282 121 192 3.51065 $w=1.7e-07 $l=1.53e-07 $layer=LI1_cond $X=7.9 $Y=0.152
+ $X2=7.9 $Y2=0.305
r283 121 187 3.10218 $w=3.05e-07 $l=8.5e-08 $layer=LI1_cond $X=7.9 $Y=0.152
+ $X2=7.815 $Y2=0.152
r284 121 197 3.10218 $w=3.05e-07 $l=8.5e-08 $layer=LI1_cond $X=7.9 $Y=0.152
+ $X2=7.985 $Y2=0.152
r285 121 162 3.51065 $w=1.7e-07 $l=1.53e-07 $layer=LI1_cond $X=4.34 $Y=0.152
+ $X2=4.34 $Y2=0.305
r286 121 154 3.10218 $w=3.05e-07 $l=8.5e-08 $layer=LI1_cond $X=4.34 $Y=0.152
+ $X2=4.255 $Y2=0.152
r287 121 167 3.10218 $w=3.05e-07 $l=8.5e-08 $layer=LI1_cond $X=4.34 $Y=0.152
+ $X2=4.425 $Y2=0.152
r288 121 123 4.39984 $w=1.7e-07 $l=1.92023e-07 $layer=LI1_cond $X=0.172 $Y=0.152
+ $X2=0.26 $Y2=0.305
r289 121 128 3.15839 $w=3.05e-07 $l=1.73e-07 $layer=LI1_cond $X=0.172 $Y=0.152
+ $X2=0.345 $Y2=0.152
r290 121 205 9.0684 $w=3.03e-07 $l=2.4e-07 $layer=LI1_cond $X=9.175 $Y=0.152
+ $X2=8.935 $Y2=0.152
r291 121 196 10.202 $w=3.03e-07 $l=2.7e-07 $layer=LI1_cond $X=8.495 $Y=0.152
+ $X2=8.765 $Y2=0.152
r292 121 197 19.2704 $w=3.03e-07 $l=5.1e-07 $layer=LI1_cond $X=8.495 $Y=0.152
+ $X2=7.985 $Y2=0.152
r293 121 187 25.6938 $w=3.03e-07 $l=6.8e-07 $layer=LI1_cond $X=7.135 $Y=0.152
+ $X2=7.815 $Y2=0.152
r294 121 188 0.37785 $w=3.03e-07 $l=1e-08 $layer=LI1_cond $X=7.135 $Y=0.152
+ $X2=7.125 $Y2=0.152
r295 121 178 18.8925 $w=3.03e-07 $l=5e-07 $layer=LI1_cond $X=6.455 $Y=0.152
+ $X2=6.955 $Y2=0.152
r296 121 179 10.5798 $w=3.03e-07 $l=2.8e-07 $layer=LI1_cond $X=6.455 $Y=0.152
+ $X2=6.175 $Y2=0.152
r297 121 166 8.69055 $w=3.03e-07 $l=2.3e-07 $layer=LI1_cond $X=5.775 $Y=0.152
+ $X2=6.005 $Y2=0.152
r298 121 167 25.316 $w=3.03e-07 $l=6.7e-07 $layer=LI1_cond $X=5.095 $Y=0.152
+ $X2=4.425 $Y2=0.152
r299 121 154 19.6482 $w=3.03e-07 $l=5.2e-07 $layer=LI1_cond $X=3.735 $Y=0.152
+ $X2=4.255 $Y2=0.152
r300 121 155 14.3583 $w=3.03e-07 $l=3.8e-07 $layer=LI1_cond $X=3.055 $Y=0.152
+ $X2=2.675 $Y2=0.152
r301 121 145 4.91205 $w=3.03e-07 $l=1.3e-07 $layer=LI1_cond $X=2.375 $Y=0.152
+ $X2=2.505 $Y2=0.152
r302 121 146 8.3127 $w=3.03e-07 $l=2.2e-07 $layer=LI1_cond $X=2.375 $Y=0.152
+ $X2=2.155 $Y2=0.152
r303 121 136 10.9577 $w=3.03e-07 $l=2.9e-07 $layer=LI1_cond $X=1.695 $Y=0.152
+ $X2=1.985 $Y2=0.152
r304 121 137 15.114 $w=3.03e-07 $l=4e-07 $layer=LI1_cond $X=1.695 $Y=0.152
+ $X2=1.295 $Y2=0.152
r305 121 127 4.15635 $w=3.03e-07 $l=1.1e-07 $layer=LI1_cond $X=1.015 $Y=0.152
+ $X2=1.125 $Y2=0.152
r306 121 128 25.316 $w=3.03e-07 $l=6.7e-07 $layer=LI1_cond $X=1.015 $Y=0.152
+ $X2=0.345 $Y2=0.152
r307 9 203 182 $w=1.7e-07 $l=2.24332e-07 $layer=licon1_NDIFF $count=1 $X=8.71
+ $Y=0.575 $X2=8.85 $Y2=0.74
r308 8 194 182 $w=1.7e-07 $l=2.24332e-07 $layer=licon1_NDIFF $count=1 $X=7.76
+ $Y=0.575 $X2=7.9 $Y2=0.74
r309 7 185 182 $w=1.7e-07 $l=2.18746e-07 $layer=licon1_NDIFF $count=1 $X=6.915
+ $Y=0.575 $X2=7.04 $Y2=0.74
r310 6 176 182 $w=1.7e-07 $l=2.4e-07 $layer=licon1_NDIFF $count=1 $X=5.95
+ $Y=0.575 $X2=6.09 $Y2=0.755
r311 5 164 182 $w=1.7e-07 $l=2.24332e-07 $layer=licon1_NDIFF $count=1 $X=4.2
+ $Y=0.575 $X2=4.34 $Y2=0.74
r312 4 152 182 $w=1.7e-07 $l=2.34307e-07 $layer=licon1_NDIFF $count=1 $X=2.465
+ $Y=0.575 $X2=2.59 $Y2=0.755
r313 3 143 182 $w=1.7e-07 $l=2.24332e-07 $layer=licon1_NDIFF $count=1 $X=1.93
+ $Y=0.575 $X2=2.07 $Y2=0.74
r314 2 134 182 $w=1.7e-07 $l=2.18746e-07 $layer=licon1_NDIFF $count=1 $X=1.085
+ $Y=0.575 $X2=1.21 $Y2=0.74
r315 1 125 182 $w=1.7e-07 $l=2.34307e-07 $layer=licon1_NDIFF $count=1 $X=0.135
+ $Y=0.575 $X2=0.26 $Y2=0.755
.ends

.subckt PM_SKY130_OSU_SC_12T_HS__DFFR_L%VDD 1 2 3 4 5 6 7 85 89 91 99 107 109
+ 117 119 127 129 137 139 145 149 164 168
r129 164 168 4.11698 $w=3.05e-07 $l=8.84e-06 $layer=MET1_cond $X=0.335 $Y=4.287
+ $X2=9.175 $Y2=4.287
r130 153 164 1.32857 $w=1.7e-07 $l=1.19e-06 $layer=mcon $count=7 $X=0.335
+ $Y=4.25 $X2=0.335 $Y2=4.25
r131 149 168 1.32857 $w=1.7e-07 $l=1.19e-06 $layer=mcon $count=7 $X=9.175
+ $Y=4.25 $X2=9.175 $Y2=4.25
r132 147 162 3.10218 $w=3.05e-07 $l=8.5e-08 $layer=LI1_cond $X=8.935 $Y=4.287
+ $X2=8.85 $Y2=4.287
r133 147 149 9.0684 $w=3.03e-07 $l=2.4e-07 $layer=LI1_cond $X=8.935 $Y=4.287
+ $X2=9.175 $Y2=4.287
r134 143 162 3.51065 $w=1.7e-07 $l=1.52e-07 $layer=LI1_cond $X=8.85 $Y=4.135
+ $X2=8.85 $Y2=4.287
r135 143 145 56.7594 $w=1.68e-07 $l=8.7e-07 $layer=LI1_cond $X=8.85 $Y=4.135
+ $X2=8.85 $Y2=3.265
r136 140 161 3.10218 $w=3.05e-07 $l=8.5e-08 $layer=LI1_cond $X=7.915 $Y=4.287
+ $X2=7.83 $Y2=4.287
r137 140 142 21.9153 $w=3.03e-07 $l=5.8e-07 $layer=LI1_cond $X=7.915 $Y=4.287
+ $X2=8.495 $Y2=4.287
r138 139 162 3.10218 $w=3.05e-07 $l=8.5e-08 $layer=LI1_cond $X=8.765 $Y=4.287
+ $X2=8.85 $Y2=4.287
r139 139 142 10.202 $w=3.03e-07 $l=2.7e-07 $layer=LI1_cond $X=8.765 $Y=4.287
+ $X2=8.495 $Y2=4.287
r140 135 161 3.51065 $w=1.7e-07 $l=1.52e-07 $layer=LI1_cond $X=7.83 $Y=4.135
+ $X2=7.83 $Y2=4.287
r141 135 137 56.107 $w=1.68e-07 $l=8.6e-07 $layer=LI1_cond $X=7.83 $Y=4.135
+ $X2=7.83 $Y2=3.275
r142 132 134 25.6938 $w=3.03e-07 $l=6.8e-07 $layer=LI1_cond $X=6.455 $Y=4.287
+ $X2=7.135 $Y2=4.287
r143 130 159 3.10218 $w=3.05e-07 $l=8.5e-08 $layer=LI1_cond $X=6.175 $Y=4.287
+ $X2=6.09 $Y2=4.287
r144 130 132 10.5798 $w=3.03e-07 $l=2.8e-07 $layer=LI1_cond $X=6.175 $Y=4.287
+ $X2=6.455 $Y2=4.287
r145 129 161 3.10218 $w=3.05e-07 $l=8.5e-08 $layer=LI1_cond $X=7.745 $Y=4.287
+ $X2=7.83 $Y2=4.287
r146 129 134 23.0489 $w=3.03e-07 $l=6.1e-07 $layer=LI1_cond $X=7.745 $Y=4.287
+ $X2=7.135 $Y2=4.287
r147 125 159 3.51065 $w=1.7e-07 $l=1.52e-07 $layer=LI1_cond $X=6.09 $Y=4.135
+ $X2=6.09 $Y2=4.287
r148 125 127 60.3476 $w=1.68e-07 $l=9.25e-07 $layer=LI1_cond $X=6.09 $Y=4.135
+ $X2=6.09 $Y2=3.21
r149 122 124 25.6938 $w=3.03e-07 $l=6.8e-07 $layer=LI1_cond $X=5.095 $Y=4.287
+ $X2=5.775 $Y2=4.287
r150 120 158 3.10218 $w=3.05e-07 $l=8.5e-08 $layer=LI1_cond $X=4.425 $Y=4.287
+ $X2=4.34 $Y2=4.287
r151 120 122 25.316 $w=3.03e-07 $l=6.7e-07 $layer=LI1_cond $X=4.425 $Y=4.287
+ $X2=5.095 $Y2=4.287
r152 119 159 3.10218 $w=3.05e-07 $l=8.5e-08 $layer=LI1_cond $X=6.005 $Y=4.287
+ $X2=6.09 $Y2=4.287
r153 119 124 8.69055 $w=3.03e-07 $l=2.3e-07 $layer=LI1_cond $X=6.005 $Y=4.287
+ $X2=5.775 $Y2=4.287
r154 115 158 3.51065 $w=1.7e-07 $l=1.52e-07 $layer=LI1_cond $X=4.34 $Y=4.135
+ $X2=4.34 $Y2=4.287
r155 115 117 54.8021 $w=1.68e-07 $l=8.4e-07 $layer=LI1_cond $X=4.34 $Y=4.135
+ $X2=4.34 $Y2=3.295
r156 112 114 25.6938 $w=3.03e-07 $l=6.8e-07 $layer=LI1_cond $X=3.055 $Y=4.287
+ $X2=3.735 $Y2=4.287
r157 110 156 3.10218 $w=3.05e-07 $l=8.5e-08 $layer=LI1_cond $X=2.675 $Y=4.287
+ $X2=2.59 $Y2=4.287
r158 110 112 14.3583 $w=3.03e-07 $l=3.8e-07 $layer=LI1_cond $X=2.675 $Y=4.287
+ $X2=3.055 $Y2=4.287
r159 109 158 3.10218 $w=3.05e-07 $l=8.5e-08 $layer=LI1_cond $X=4.255 $Y=4.287
+ $X2=4.34 $Y2=4.287
r160 109 114 19.6482 $w=3.03e-07 $l=5.2e-07 $layer=LI1_cond $X=4.255 $Y=4.287
+ $X2=3.735 $Y2=4.287
r161 105 156 3.51065 $w=1.7e-07 $l=1.52e-07 $layer=LI1_cond $X=2.59 $Y=4.135
+ $X2=2.59 $Y2=4.287
r162 105 107 54.8021 $w=1.68e-07 $l=8.4e-07 $layer=LI1_cond $X=2.59 $Y=4.135
+ $X2=2.59 $Y2=3.295
r163 102 155 3.10218 $w=3.05e-07 $l=8.5e-08 $layer=LI1_cond $X=2.085 $Y=4.287
+ $X2=2 $Y2=4.287
r164 102 104 10.9577 $w=3.03e-07 $l=2.9e-07 $layer=LI1_cond $X=2.085 $Y=4.287
+ $X2=2.375 $Y2=4.287
r165 101 156 3.10218 $w=3.05e-07 $l=8.5e-08 $layer=LI1_cond $X=2.505 $Y=4.287
+ $X2=2.59 $Y2=4.287
r166 101 104 4.91205 $w=3.03e-07 $l=1.3e-07 $layer=LI1_cond $X=2.505 $Y=4.287
+ $X2=2.375 $Y2=4.287
r167 97 155 3.51065 $w=1.7e-07 $l=1.52e-07 $layer=LI1_cond $X=2 $Y=4.135 $X2=2
+ $Y2=4.287
r168 97 99 56.107 $w=1.68e-07 $l=8.6e-07 $layer=LI1_cond $X=2 $Y=4.135 $X2=2
+ $Y2=3.275
r169 94 96 25.6938 $w=3.03e-07 $l=6.8e-07 $layer=LI1_cond $X=1.015 $Y=4.287
+ $X2=1.695 $Y2=4.287
r170 92 153 3.16604 $w=3.05e-07 $l=1.73e-07 $layer=LI1_cond $X=0.345 $Y=4.287
+ $X2=0.172 $Y2=4.287
r171 92 94 25.316 $w=3.03e-07 $l=6.7e-07 $layer=LI1_cond $X=0.345 $Y=4.287
+ $X2=1.015 $Y2=4.287
r172 91 155 3.10218 $w=3.05e-07 $l=8.5e-08 $layer=LI1_cond $X=1.915 $Y=4.287
+ $X2=2 $Y2=4.287
r173 91 96 8.3127 $w=3.03e-07 $l=2.2e-07 $layer=LI1_cond $X=1.915 $Y=4.287
+ $X2=1.695 $Y2=4.287
r174 87 153 4.3922 $w=1.7e-07 $l=1.90997e-07 $layer=LI1_cond $X=0.26 $Y=4.135
+ $X2=0.172 $Y2=4.287
r175 87 89 32.6203 $w=1.68e-07 $l=5e-07 $layer=LI1_cond $X=0.26 $Y=4.135
+ $X2=0.26 $Y2=3.635
r176 85 149 182 $w=1.7e-07 $l=2.43824e-07 $layer=licon1_NTAP_notbjt $count=1
+ $X=8.97 $Y=4.135 $X2=9.175 $Y2=4.22
r177 85 142 182 $w=1.7e-07 $l=2.43824e-07 $layer=licon1_NTAP_notbjt $count=1
+ $X=8.29 $Y=4.135 $X2=8.495 $Y2=4.22
r178 85 161 182 $w=1.7e-07 $l=2.43824e-07 $layer=licon1_NTAP_notbjt $count=1
+ $X=7.61 $Y=4.135 $X2=7.815 $Y2=4.22
r179 85 134 182 $w=1.7e-07 $l=2.43824e-07 $layer=licon1_NTAP_notbjt $count=1
+ $X=6.93 $Y=4.135 $X2=7.135 $Y2=4.22
r180 85 132 182 $w=1.7e-07 $l=2.43824e-07 $layer=licon1_NTAP_notbjt $count=1
+ $X=6.25 $Y=4.135 $X2=6.455 $Y2=4.22
r181 85 124 182 $w=1.7e-07 $l=2.43824e-07 $layer=licon1_NTAP_notbjt $count=1
+ $X=5.57 $Y=4.135 $X2=5.775 $Y2=4.22
r182 85 122 182 $w=1.7e-07 $l=2.43824e-07 $layer=licon1_NTAP_notbjt $count=1
+ $X=4.89 $Y=4.135 $X2=5.095 $Y2=4.22
r183 85 158 182 $w=1.7e-07 $l=2.43824e-07 $layer=licon1_NTAP_notbjt $count=1
+ $X=4.21 $Y=4.135 $X2=4.415 $Y2=4.22
r184 85 114 182 $w=1.7e-07 $l=2.43824e-07 $layer=licon1_NTAP_notbjt $count=1
+ $X=3.53 $Y=4.135 $X2=3.735 $Y2=4.22
r185 85 112 182 $w=1.7e-07 $l=2.43824e-07 $layer=licon1_NTAP_notbjt $count=1
+ $X=2.85 $Y=4.135 $X2=3.055 $Y2=4.22
r186 85 104 182 $w=1.7e-07 $l=2.43824e-07 $layer=licon1_NTAP_notbjt $count=1
+ $X=2.17 $Y=4.135 $X2=2.375 $Y2=4.22
r187 85 96 182 $w=1.7e-07 $l=2.43824e-07 $layer=licon1_NTAP_notbjt $count=1
+ $X=1.49 $Y=4.135 $X2=1.695 $Y2=4.22
r188 85 94 182 $w=1.7e-07 $l=2.43824e-07 $layer=licon1_NTAP_notbjt $count=1
+ $X=0.81 $Y=4.135 $X2=1.015 $Y2=4.22
r189 85 153 182 $w=1.7e-07 $l=2.43824e-07 $layer=licon1_NTAP_notbjt $count=1
+ $X=0.13 $Y=4.135 $X2=0.335 $Y2=4.22
r190 7 145 300 $w=1.7e-07 $l=3.01993e-07 $layer=licon1_PDIFF $count=2 $X=8.71
+ $Y=3.025 $X2=8.85 $Y2=3.265
r191 6 137 300 $w=1.7e-07 $l=3.1225e-07 $layer=licon1_PDIFF $count=2 $X=7.69
+ $Y=3.025 $X2=7.83 $Y2=3.275
r192 5 127 300 $w=1.7e-07 $l=6.71361e-07 $layer=licon1_PDIFF $count=2 $X=5.95
+ $Y=2.605 $X2=6.09 $Y2=3.21
r193 4 117 300 $w=1.7e-07 $l=7.56769e-07 $layer=licon1_PDIFF $count=2 $X=4.2
+ $Y=2.605 $X2=4.34 $Y2=3.295
r194 3 107 300 $w=1.7e-07 $l=7.499e-07 $layer=licon1_PDIFF $count=2 $X=2.465
+ $Y=2.605 $X2=2.59 $Y2=3.295
r195 2 99 300 $w=1.7e-07 $l=3.1225e-07 $layer=licon1_PDIFF $count=2 $X=1.86
+ $Y=3.025 $X2=2 $Y2=3.275
r196 1 89 600 $w=1.7e-07 $l=1.09071e-06 $layer=licon1_PDIFF $count=1 $X=0.135
+ $Y=2.605 $X2=0.26 $Y2=3.635
.ends

.subckt PM_SKY130_OSU_SC_12T_HS__DFFR_L%RN 3 5 7 13 15 21
c38 21 0 7.50258e-20 $X=0.325 $Y=2.85
r39 19 21 0.00301932 $w=2.07e-07 $l=5e-09 $layer=MET1_cond $X=0.32 $Y=2.85
+ $X2=0.325 $Y2=2.85
r40 15 17 8.98947 $w=2.85e-07 $l=2.1e-07 $layer=LI1_cond $X=0.32 $Y=1.825
+ $X2=0.53 $Y2=1.825
r41 13 19 9.3 $w=1.7e-07 $l=1.7e-07 $layer=mcon $count=1 $X=0.32 $Y=2.85
+ $X2=0.32 $Y2=2.85
r42 11 15 3.76007 $w=1.7e-07 $l=1.65e-07 $layer=LI1_cond $X=0.32 $Y=1.99
+ $X2=0.32 $Y2=1.825
r43 11 13 56.107 $w=1.68e-07 $l=8.6e-07 $layer=LI1_cond $X=0.32 $Y=1.99 $X2=0.32
+ $Y2=2.85
r44 10 17 145.28 $w=1.7e-07 $l=1.7e-07 $layer=licon1_POLY $count=1 $X=0.53
+ $Y=1.825 $X2=0.53 $Y2=1.825
r45 5 10 38.945 $w=2.68e-07 $l=1.90526e-07 $layer=POLY_cond $X=0.475 $Y=1.99
+ $X2=0.53 $Y2=1.825
r46 5 7 638.394 $w=1.5e-07 $l=1.245e-06 $layer=POLY_cond $X=0.475 $Y=1.99
+ $X2=0.475 $Y2=3.235
r47 1 10 39.8442 $w=2.68e-07 $l=1.95576e-07 $layer=POLY_cond $X=0.475 $Y=1.655
+ $X2=0.53 $Y2=1.825
r48 1 3 412.777 $w=1.5e-07 $l=8.05e-07 $layer=POLY_cond $X=0.475 $Y=1.655
+ $X2=0.475 $Y2=0.85
.ends

.subckt PM_SKY130_OSU_SC_12T_HS__DFFR_L%A_110_115# 1 3 9 11 14 16 18 20 22 26 32
+ 36 41 42 43 46 51 55 59 60 61 63 65 68
c198 68 0 6.51688e-20 $X=7.89 $Y=1.37
c199 65 0 6.22049e-20 $X=1.22 $Y=1.37
c200 55 0 1.81152e-19 $X=7.89 $Y=1.27
c201 46 0 7.50258e-20 $X=0.87 $Y=2.26
c202 16 0 3.006e-19 $X=7.615 $Y=1.58
r203 63 68 0.0804477 $w=2.9e-07 $l=1.15e-07 $layer=MET1_cond $X=7.89 $Y=1.255
+ $X2=7.89 $Y2=1.37
r204 62 63 0.16369 $w=1.7e-07 $l=1.7e-07 $layer=MET1_cond $X=7.89 $Y=1.085
+ $X2=7.89 $Y2=1.255
r205 60 62 0.0698411 $w=1.7e-07 $l=1.20208e-07 $layer=MET1_cond $X=7.805 $Y=1
+ $X2=7.89 $Y2=1.085
r206 60 61 6.25874 $w=1.7e-07 $l=6.5e-06 $layer=MET1_cond $X=7.805 $Y=1
+ $X2=1.305 $Y2=1
r207 59 65 0.0829981 $w=2.7e-07 $l=1.15e-07 $layer=MET1_cond $X=1.22 $Y=1.255
+ $X2=1.22 $Y2=1.37
r208 58 61 0.0698411 $w=1.7e-07 $l=1.20208e-07 $layer=MET1_cond $X=1.22 $Y=1.085
+ $X2=1.305 $Y2=1
r209 58 59 0.16369 $w=1.7e-07 $l=1.7e-07 $layer=MET1_cond $X=1.22 $Y=1.085
+ $X2=1.22 $Y2=1.255
r210 57 68 9.3 $w=1.7e-07 $l=1.7e-07 $layer=mcon $count=1 $X=7.89 $Y=1.37
+ $X2=7.89 $Y2=1.37
r211 55 57 4.51852 $w=2.7e-07 $l=1e-07 $layer=LI1_cond $X=7.89 $Y=1.27 $X2=7.89
+ $Y2=1.37
r212 53 65 9.3 $w=1.7e-07 $l=1.7e-07 $layer=mcon $count=1 $X=1.22 $Y=1.37
+ $X2=1.22 $Y2=1.37
r213 51 53 5.54545 $w=2.2e-07 $l=1e-07 $layer=LI1_cond $X=1.26 $Y=1.27 $X2=1.26
+ $Y2=1.37
r214 48 49 8.89069 $w=2.47e-07 $l=1.8e-07 $layer=LI1_cond $X=0.69 $Y=1.19
+ $X2=0.87 $Y2=1.19
r215 44 46 11.7433 $w=1.68e-07 $l=1.8e-07 $layer=LI1_cond $X=0.69 $Y=2.26
+ $X2=0.87 $Y2=2.26
r216 43 49 5.39411 $w=2.47e-07 $l=1.18427e-07 $layer=LI1_cond $X=0.955 $Y=1.27
+ $X2=0.87 $Y2=1.19
r217 42 51 2.2496 $w=1.7e-07 $l=1.25e-07 $layer=LI1_cond $X=1.135 $Y=1.27
+ $X2=1.26 $Y2=1.27
r218 42 43 11.7433 $w=1.68e-07 $l=1.8e-07 $layer=LI1_cond $X=1.135 $Y=1.27
+ $X2=0.955 $Y2=1.27
r219 41 46 0.716491 $w=1.7e-07 $l=8.5e-08 $layer=LI1_cond $X=0.87 $Y=2.175
+ $X2=0.87 $Y2=2.26
r220 40 49 2.92482 $w=1.7e-07 $l=1.65e-07 $layer=LI1_cond $X=0.87 $Y=1.355
+ $X2=0.87 $Y2=1.19
r221 40 41 53.4973 $w=1.68e-07 $l=8.2e-07 $layer=LI1_cond $X=0.87 $Y=1.355
+ $X2=0.87 $Y2=2.175
r222 36 38 44.3636 $w=1.68e-07 $l=6.8e-07 $layer=LI1_cond $X=0.69 $Y=2.95
+ $X2=0.69 $Y2=3.63
r223 34 44 0.716491 $w=1.7e-07 $l=8.5e-08 $layer=LI1_cond $X=0.69 $Y=2.345
+ $X2=0.69 $Y2=2.26
r224 34 36 39.4706 $w=1.68e-07 $l=6.05e-07 $layer=LI1_cond $X=0.69 $Y=2.345
+ $X2=0.69 $Y2=2.95
r225 30 48 2.92482 $w=1.7e-07 $l=1.65e-07 $layer=LI1_cond $X=0.69 $Y=1.025
+ $X2=0.69 $Y2=1.19
r226 30 32 17.615 $w=1.68e-07 $l=2.7e-07 $layer=LI1_cond $X=0.69 $Y=1.025
+ $X2=0.69 $Y2=0.755
r227 29 55 145.28 $w=1.7e-07 $l=1.7e-07 $layer=licon1_POLY $count=1 $X=7.89
+ $Y=1.27 $X2=7.89 $Y2=1.27
r228 24 51 145.28 $w=1.7e-07 $l=1.7e-07 $layer=licon1_POLY $count=1 $X=1.22
+ $Y=1.27 $X2=1.22 $Y2=1.27
r229 24 26 35.8466 $w=3.3e-07 $l=2.05e-07 $layer=POLY_cond $X=1.22 $Y=1.27
+ $X2=1.425 $Y2=1.27
r230 20 29 38.9663 $w=3.64e-07 $l=2.07918e-07 $layer=POLY_cond $X=7.685 $Y=1.105
+ $X2=7.782 $Y2=1.27
r231 20 22 102.827 $w=1.5e-07 $l=3.2e-07 $layer=POLY_cond $X=7.685 $Y=1.105
+ $X2=7.685 $Y2=0.785
r232 16 29 58.1668 $w=3.64e-07 $l=3.84539e-07 $layer=POLY_cond $X=7.615 $Y=1.58
+ $X2=7.782 $Y2=1.27
r233 16 18 956.309 $w=1.5e-07 $l=1.865e-06 $layer=POLY_cond $X=7.615 $Y=1.58
+ $X2=7.615 $Y2=3.445
r234 12 26 21.2229 $w=1.5e-07 $l=1.65e-07 $layer=POLY_cond $X=1.425 $Y=1.435
+ $X2=1.425 $Y2=1.27
r235 12 14 1030.66 $w=1.5e-07 $l=2.01e-06 $layer=POLY_cond $X=1.425 $Y=1.435
+ $X2=1.425 $Y2=3.445
r236 9 26 21.2229 $w=1.5e-07 $l=1.65e-07 $layer=POLY_cond $X=1.425 $Y=1.105
+ $X2=1.425 $Y2=1.27
r237 9 11 102.827 $w=1.5e-07 $l=3.2e-07 $layer=POLY_cond $X=1.425 $Y=1.105
+ $X2=1.425 $Y2=0.785
r238 3 38 400 $w=1.7e-07 $l=1.09276e-06 $layer=licon1_PDIFF $count=1 $X=0.55
+ $Y=2.605 $X2=0.69 $Y2=3.63
r239 3 36 400 $w=1.7e-07 $l=4.09054e-07 $layer=licon1_PDIFF $count=1 $X=0.55
+ $Y=2.605 $X2=0.69 $Y2=2.95
r240 1 32 182 $w=1.7e-07 $l=2.4e-07 $layer=licon1_NDIFF $count=1 $X=0.55
+ $Y=0.575 $X2=0.69 $Y2=0.755
.ends

.subckt PM_SKY130_OSU_SC_12T_HS__DFFR_L%A_342_442# 1 3 11 15 18 22 23 25 26 28
+ 31 36 38
c85 38 0 1.72079e-19 $X=3.365 $Y=0.755
r86 38 40 3.47578 $w=3.51e-07 $l=1e-07 $layer=LI1_cond $X=3.365 $Y=0.755
+ $X2=3.465 $Y2=0.755
r87 36 37 15.1353 $w=2.66e-07 $l=3.3e-07 $layer=LI1_cond $X=2.025 $Y=2.375
+ $X2=2.025 $Y2=2.705
r88 31 33 23.0489 $w=3.38e-07 $l=6.8e-07 $layer=LI1_cond $X=3.465 $Y=2.955
+ $X2=3.465 $Y2=3.635
r89 29 31 5.59274 $w=3.38e-07 $l=1.65e-07 $layer=LI1_cond $X=3.465 $Y=2.79
+ $X2=3.465 $Y2=2.955
r90 27 38 4.99104 $w=1.7e-07 $l=1.8e-07 $layer=LI1_cond $X=3.365 $Y=0.935
+ $X2=3.365 $Y2=0.755
r91 27 28 17.2888 $w=1.68e-07 $l=2.65e-07 $layer=LI1_cond $X=3.365 $Y=0.935
+ $X2=3.365 $Y2=1.2
r92 25 28 6.81649 $w=1.7e-07 $l=1.20208e-07 $layer=LI1_cond $X=3.28 $Y=1.285
+ $X2=3.365 $Y2=1.2
r93 25 26 70.4599 $w=1.68e-07 $l=1.08e-06 $layer=LI1_cond $X=3.28 $Y=1.285
+ $X2=2.2 $Y2=1.285
r94 24 37 3.35683 $w=1.7e-07 $l=1.7e-07 $layer=LI1_cond $X=2.195 $Y=2.705
+ $X2=2.025 $Y2=2.705
r95 23 29 7.85115 $w=1.7e-07 $l=2.08207e-07 $layer=LI1_cond $X=3.295 $Y=2.705
+ $X2=3.465 $Y2=2.79
r96 23 24 71.7647 $w=1.68e-07 $l=1.1e-06 $layer=LI1_cond $X=3.295 $Y=2.705
+ $X2=2.195 $Y2=2.705
r97 22 36 9.15133 $w=2.66e-07 $l=2.03101e-07 $layer=LI1_cond $X=2.11 $Y=2.21
+ $X2=2.025 $Y2=2.375
r98 21 26 6.81649 $w=1.7e-07 $l=2.25555e-07 $layer=LI1_cond $X=2.11 $Y=1.47
+ $X2=2.2 $Y2=1.285
r99 21 22 48.2781 $w=1.68e-07 $l=7.4e-07 $layer=LI1_cond $X=2.11 $Y=1.47
+ $X2=2.11 $Y2=2.21
r100 18 36 145.28 $w=1.7e-07 $l=1.7e-07 $layer=licon1_POLY $count=1 $X=1.94
+ $Y=2.375 $X2=1.94 $Y2=2.375
r101 18 20 46.6671 $w=3.65e-07 $l=1.65e-07 $layer=POLY_cond $X=1.892 $Y=2.375
+ $X2=1.892 $Y2=2.54
r102 18 19 46.6671 $w=3.65e-07 $l=1.65e-07 $layer=POLY_cond $X=1.892 $Y=2.375
+ $X2=1.892 $Y2=2.21
r103 15 19 730.691 $w=1.5e-07 $l=1.425e-06 $layer=POLY_cond $X=1.855 $Y=0.785
+ $X2=1.855 $Y2=2.21
r104 11 20 464.053 $w=1.5e-07 $l=9.05e-07 $layer=POLY_cond $X=1.785 $Y=3.445
+ $X2=1.785 $Y2=2.54
r105 3 33 400 $w=1.7e-07 $l=1.13695e-06 $layer=licon1_PDIFF $count=1 $X=3.24
+ $Y=2.605 $X2=3.465 $Y2=3.635
r106 3 31 400 $w=1.7e-07 $l=4.48609e-07 $layer=licon1_PDIFF $count=1 $X=3.24
+ $Y=2.605 $X2=3.465 $Y2=2.955
r107 1 40 182 $w=1.7e-07 $l=3.01869e-07 $layer=licon1_NDIFF $count=1 $X=3.24
+ $Y=0.575 $X2=3.465 $Y2=0.755
.ends

.subckt PM_SKY130_OSU_SC_12T_HS__DFFR_L%D 3 7 10 14 19
c42 19 0 1.36979e-19 $X=2.865 $Y=1.74
c43 10 0 1.98306e-19 $X=2.865 $Y=1.74
r44 14 19 9.3 $w=1.7e-07 $l=1.7e-07 $layer=mcon $count=1 $X=2.865 $Y=1.74
+ $X2=2.865 $Y2=1.74
r45 10 14 145.28 $w=1.7e-07 $l=1.7e-07 $layer=licon1_POLY $count=1 $X=2.865
+ $Y=1.74 $X2=2.865 $Y2=1.74
r46 10 12 48.4159 $w=2.7e-07 $l=1.65e-07 $layer=POLY_cond $X=2.865 $Y=1.74
+ $X2=2.865 $Y2=1.905
r47 10 11 48.4159 $w=2.7e-07 $l=1.65e-07 $layer=POLY_cond $X=2.865 $Y=1.74
+ $X2=2.865 $Y2=1.575
r48 7 12 681.979 $w=1.5e-07 $l=1.33e-06 $layer=POLY_cond $X=2.805 $Y=3.235
+ $X2=2.805 $Y2=1.905
r49 3 11 371.755 $w=1.5e-07 $l=7.25e-07 $layer=POLY_cond $X=2.805 $Y=0.85
+ $X2=2.805 $Y2=1.575
.ends

.subckt PM_SKY130_OSU_SC_12T_HS__DFFR_L%CK 3 7 10 13 15 17 18 20 23 25 29 30 33
+ 34 37 42 46 50 54 56 57 59 65 69 72 73 74 75 82
c250 75 0 1.48522e-19 $X=5.6 $Y=2.11
c251 73 0 1.48522e-19 $X=3.37 $Y=2.11
c252 72 0 1.89675e-19 $X=5.31 $Y=2.11
c253 59 0 3.12771e-20 $X=6.45 $Y=2.11
c254 57 0 6.91727e-20 $X=5.06 $Y=2.11
c255 56 0 8.3306e-20 $X=5.34 $Y=2.11
c256 50 0 3.67809e-19 $X=3.705 $Y=1.4
c257 46 0 1.89329e-19 $X=3.62 $Y=2.11
c258 37 0 1.16696e-19 $X=5.425 $Y=2.285
c259 25 0 1.36979e-19 $X=3.255 $Y=2.285
c260 18 0 1.37092e-19 $X=6.305 $Y=2.45
r261 75 80 0.103375 $w=2.3e-07 $l=1.45e-07 $layer=MET1_cond $X=5.6 $Y=2.11
+ $X2=5.455 $Y2=2.11
r262 74 82 0.103375 $w=2.3e-07 $l=1.45e-07 $layer=MET1_cond $X=6.305 $Y=2.11
+ $X2=6.45 $Y2=2.11
r263 74 75 0.678832 $w=1.7e-07 $l=7.05e-07 $layer=MET1_cond $X=6.305 $Y=2.11
+ $X2=5.6 $Y2=2.11
r264 73 77 0.103375 $w=2.3e-07 $l=1.45e-07 $layer=MET1_cond $X=3.37 $Y=2.11
+ $X2=3.225 $Y2=2.11
r265 72 80 0.103375 $w=2.3e-07 $l=1.45e-07 $layer=MET1_cond $X=5.31 $Y=2.11
+ $X2=5.455 $Y2=2.11
r266 72 73 1.86799 $w=1.7e-07 $l=1.94e-06 $layer=MET1_cond $X=5.31 $Y=2.11
+ $X2=3.37 $Y2=2.11
r267 69 80 9.3 $w=1.7e-07 $l=1.7e-07 $layer=mcon $count=1 $X=5.455 $Y=2.11
+ $X2=5.455 $Y2=2.11
r268 69 71 11.7308 $w=1.82e-07 $l=1.75e-07 $layer=LI1_cond $X=5.44 $Y=2.11
+ $X2=5.44 $Y2=2.285
r269 65 77 9.3 $w=1.7e-07 $l=1.7e-07 $layer=mcon $count=1 $X=3.225 $Y=2.11
+ $X2=3.225 $Y2=2.11
r270 65 67 11.7308 $w=1.82e-07 $l=1.75e-07 $layer=LI1_cond $X=3.24 $Y=2.11
+ $X2=3.24 $Y2=2.285
r271 59 82 9.3 $w=1.7e-07 $l=1.7e-07 $layer=mcon $count=1 $X=6.45 $Y=2.11
+ $X2=6.45 $Y2=2.11
r272 59 62 11.4171 $w=1.68e-07 $l=1.75e-07 $layer=LI1_cond $X=6.45 $Y=2.11
+ $X2=6.45 $Y2=2.285
r273 56 69 1.129 $w=1.7e-07 $l=1e-07 $layer=LI1_cond $X=5.34 $Y=2.11 $X2=5.44
+ $Y2=2.11
r274 56 57 18.2674 $w=1.68e-07 $l=2.8e-07 $layer=LI1_cond $X=5.34 $Y=2.11
+ $X2=5.06 $Y2=2.11
r275 52 57 6.81649 $w=1.7e-07 $l=1.20208e-07 $layer=LI1_cond $X=4.975 $Y=2.025
+ $X2=5.06 $Y2=2.11
r276 52 54 40.7754 $w=1.68e-07 $l=6.25e-07 $layer=LI1_cond $X=4.975 $Y=2.025
+ $X2=4.975 $Y2=1.4
r277 48 50 40.7754 $w=1.68e-07 $l=6.25e-07 $layer=LI1_cond $X=3.705 $Y=2.025
+ $X2=3.705 $Y2=1.4
r278 47 65 1.129 $w=1.7e-07 $l=1e-07 $layer=LI1_cond $X=3.34 $Y=2.11 $X2=3.24
+ $Y2=2.11
r279 46 48 6.81649 $w=1.7e-07 $l=1.20208e-07 $layer=LI1_cond $X=3.62 $Y=2.11
+ $X2=3.705 $Y2=2.025
r280 46 47 18.2674 $w=1.68e-07 $l=2.8e-07 $layer=LI1_cond $X=3.62 $Y=2.11
+ $X2=3.34 $Y2=2.11
r281 45 62 145.28 $w=1.7e-07 $l=1.7e-07 $layer=licon1_POLY $count=1 $X=6.45
+ $Y=2.285 $X2=6.45 $Y2=2.285
r282 40 42 41.0213 $w=1.5e-07 $l=8e-08 $layer=POLY_cond $X=6.305 $Y=1.28
+ $X2=6.385 $Y2=1.28
r283 37 71 145.28 $w=1.7e-07 $l=1.7e-07 $layer=licon1_POLY $count=1 $X=5.425
+ $Y=2.285 $X2=5.425 $Y2=2.285
r284 37 39 46.2115 $w=3.3e-07 $l=1.65e-07 $layer=POLY_cond $X=5.425 $Y=2.285
+ $X2=5.425 $Y2=2.45
r285 33 54 145.28 $w=1.7e-07 $l=1.7e-07 $layer=licon1_POLY $count=1 $X=4.975
+ $Y=1.4 $X2=4.975 $Y2=1.4
r286 33 34 48.4159 $w=2.7e-07 $l=1.65e-07 $layer=POLY_cond $X=4.975 $Y=1.4
+ $X2=4.975 $Y2=1.235
r287 29 50 145.28 $w=1.7e-07 $l=1.7e-07 $layer=licon1_POLY $count=1 $X=3.705
+ $Y=1.4 $X2=3.705 $Y2=1.4
r288 29 30 48.4159 $w=2.7e-07 $l=1.65e-07 $layer=POLY_cond $X=3.705 $Y=1.4
+ $X2=3.705 $Y2=1.235
r289 25 67 145.28 $w=1.7e-07 $l=1.7e-07 $layer=licon1_POLY $count=1 $X=3.255
+ $Y=2.285 $X2=3.255 $Y2=2.285
r290 25 27 46.2115 $w=3.3e-07 $l=1.65e-07 $layer=POLY_cond $X=3.255 $Y=2.285
+ $X2=3.255 $Y2=2.45
r291 23 45 38.571 $w=3.25e-07 $l=1.75656e-07 $layer=POLY_cond $X=6.385 $Y=2.12
+ $X2=6.407 $Y2=2.285
r292 22 42 2.83073 $w=1.5e-07 $l=7.5e-08 $layer=POLY_cond $X=6.385 $Y=1.355
+ $X2=6.385 $Y2=1.28
r293 22 23 392.266 $w=1.5e-07 $l=7.65e-07 $layer=POLY_cond $X=6.385 $Y=1.355
+ $X2=6.385 $Y2=2.12
r294 18 45 38.571 $w=3.25e-07 $l=2.09893e-07 $layer=POLY_cond $X=6.305 $Y=2.45
+ $X2=6.407 $Y2=2.285
r295 18 20 402.521 $w=1.5e-07 $l=7.85e-07 $layer=POLY_cond $X=6.305 $Y=2.45
+ $X2=6.305 $Y2=3.235
r296 15 40 2.83073 $w=1.5e-07 $l=7.5e-08 $layer=POLY_cond $X=6.305 $Y=1.205
+ $X2=6.305 $Y2=1.28
r297 15 17 114.073 $w=1.5e-07 $l=3.55e-07 $layer=POLY_cond $X=6.305 $Y=1.205
+ $X2=6.305 $Y2=0.85
r298 13 39 402.521 $w=1.5e-07 $l=7.85e-07 $layer=POLY_cond $X=5.515 $Y=3.235
+ $X2=5.515 $Y2=2.45
r299 10 34 123.713 $w=1.5e-07 $l=3.85e-07 $layer=POLY_cond $X=4.915 $Y=0.85
+ $X2=4.915 $Y2=1.235
r300 7 30 123.713 $w=1.5e-07 $l=3.85e-07 $layer=POLY_cond $X=3.765 $Y=0.85
+ $X2=3.765 $Y2=1.235
r301 3 27 402.521 $w=1.5e-07 $l=7.85e-07 $layer=POLY_cond $X=3.165 $Y=3.235
+ $X2=3.165 $Y2=2.45
.ends

.subckt PM_SKY130_OSU_SC_12T_HS__DFFR_L%A_217_605# 1 3 11 15 17 18 21 22 27 31
+ 35 37 38 41 47 52 53 58 60
c139 60 0 7.97351e-20 $X=4.205 $Y=1.37
c140 53 0 1.35571e-19 $X=4.06 $Y=1.37
c141 47 0 1.5821e-19 $X=4.295 $Y=2.285
c142 31 0 6.36774e-20 $X=4.555 $Y=3.235
c143 22 0 1.89329e-19 $X=4.2 $Y=2.285
c144 21 0 6.91727e-20 $X=4.48 $Y=2.285
c145 15 0 6.36774e-20 $X=4.125 $Y=3.235
r146 56 58 0.0982977 $w=2.45e-07 $l=1.4e-07 $layer=MET1_cond $X=1.64 $Y=1.372
+ $X2=1.78 $Y2=1.372
r147 53 60 0.103375 $w=2.3e-07 $l=1.45e-07 $layer=MET1_cond $X=4.06 $Y=1.37
+ $X2=4.205 $Y2=1.37
r148 53 58 2.19537 $w=1.7e-07 $l=2.28e-06 $layer=MET1_cond $X=4.06 $Y=1.37
+ $X2=1.78 $Y2=1.37
r149 50 60 9.3 $w=1.7e-07 $l=1.7e-07 $layer=mcon $count=1 $X=4.205 $Y=1.37
+ $X2=4.205 $Y2=1.37
r150 50 52 5.43564 $w=2.02e-07 $l=9e-08 $layer=LI1_cond $X=4.205 $Y=1.345
+ $X2=4.295 $Y2=1.345
r151 45 52 1.74864 $w=1.7e-07 $l=1.1e-07 $layer=LI1_cond $X=4.295 $Y=1.455
+ $X2=4.295 $Y2=1.345
r152 45 47 54.1497 $w=1.68e-07 $l=8.3e-07 $layer=LI1_cond $X=4.295 $Y=1.455
+ $X2=4.295 $Y2=2.285
r153 44 56 9.3 $w=1.7e-07 $l=1.7e-07 $layer=mcon $count=1 $X=1.64 $Y=1.37
+ $X2=1.64 $Y2=1.37
r154 41 44 41.1016 $w=1.68e-07 $l=6.3e-07 $layer=LI1_cond $X=1.64 $Y=0.74
+ $X2=1.64 $Y2=1.37
r155 39 44 23.1604 $w=1.68e-07 $l=3.55e-07 $layer=LI1_cond $X=1.64 $Y=1.725
+ $X2=1.64 $Y2=1.37
r156 37 39 6.81649 $w=1.7e-07 $l=1.20208e-07 $layer=LI1_cond $X=1.555 $Y=1.81
+ $X2=1.64 $Y2=1.725
r157 37 38 16.9626 $w=1.68e-07 $l=2.6e-07 $layer=LI1_cond $X=1.555 $Y=1.81
+ $X2=1.295 $Y2=1.81
r158 33 38 6.81649 $w=1.7e-07 $l=1.20208e-07 $layer=LI1_cond $X=1.21 $Y=1.895
+ $X2=1.295 $Y2=1.81
r159 33 35 90.0321 $w=1.68e-07 $l=1.38e-06 $layer=LI1_cond $X=1.21 $Y=1.895
+ $X2=1.21 $Y2=3.275
r160 29 31 417.904 $w=1.5e-07 $l=8.15e-07 $layer=POLY_cond $X=4.555 $Y=2.42
+ $X2=4.555 $Y2=3.235
r161 25 27 212.798 $w=1.5e-07 $l=4.15e-07 $layer=POLY_cond $X=4.555 $Y=1.265
+ $X2=4.555 $Y2=0.85
r162 24 47 145.28 $w=1.7e-07 $l=1.7e-07 $layer=licon1_POLY $count=1 $X=4.295
+ $Y=2.285 $X2=4.295 $Y2=2.285
r163 22 24 21.1065 $w=2.7e-07 $l=9.5e-08 $layer=POLY_cond $X=4.2 $Y=2.285
+ $X2=4.295 $Y2=2.285
r164 21 29 29.8935 $w=2.7e-07 $l=1.68375e-07 $layer=POLY_cond $X=4.48 $Y=2.285
+ $X2=4.555 $Y2=2.42
r165 21 24 41.1021 $w=2.7e-07 $l=1.85e-07 $layer=POLY_cond $X=4.48 $Y=2.285
+ $X2=4.295 $Y2=2.285
r166 20 52 145.28 $w=1.7e-07 $l=1.7e-07 $layer=licon1_POLY $count=1 $X=4.295
+ $Y=1.4 $X2=4.295 $Y2=1.4
r167 18 20 21.1065 $w=2.7e-07 $l=9.5e-08 $layer=POLY_cond $X=4.2 $Y=1.4
+ $X2=4.295 $Y2=1.4
r168 17 25 29.8935 $w=2.7e-07 $l=1.68375e-07 $layer=POLY_cond $X=4.48 $Y=1.4
+ $X2=4.555 $Y2=1.265
r169 17 20 41.1021 $w=2.7e-07 $l=1.85e-07 $layer=POLY_cond $X=4.48 $Y=1.4
+ $X2=4.295 $Y2=1.4
r170 13 22 29.8935 $w=2.7e-07 $l=1.68375e-07 $layer=POLY_cond $X=4.125 $Y=2.42
+ $X2=4.2 $Y2=2.285
r171 13 15 417.904 $w=1.5e-07 $l=8.15e-07 $layer=POLY_cond $X=4.125 $Y=2.42
+ $X2=4.125 $Y2=3.235
r172 9 18 29.8935 $w=2.7e-07 $l=1.68375e-07 $layer=POLY_cond $X=4.125 $Y=1.265
+ $X2=4.2 $Y2=1.4
r173 9 11 212.798 $w=1.5e-07 $l=4.15e-07 $layer=POLY_cond $X=4.125 $Y=1.265
+ $X2=4.125 $Y2=0.85
r174 3 35 300 $w=1.7e-07 $l=3.06186e-07 $layer=licon1_PDIFF $count=2 $X=1.085
+ $Y=3.025 $X2=1.21 $Y2=3.275