* File: sky130_osu_sc_12T_hs__dffsr_l.pex.spice
* Created: Fri Nov 12 15:09:55 2021
* Program "Calibre xRC"
* Version "v2021.2_28.15"
* Nominal Temperature: 27C
* Circuit Temperature: 27C
* 
.subckt PM_SKY130_OSU_SC_12T_HS__DFFSR_L%GND 1 2 3 4 5 6 7 8 9 127 131 133 140
+ 142 152 154 158 160 170 172 182 184 191 193 203 205 212 238 240
c265 191 0 1.63226e-19 $X=7.47 $Y=0.755
c266 182 0 3.34232e-19 $X=6.52 $Y=0.755
c267 158 0 3.07651e-19 $X=3.02 $Y=0.755
c268 152 0 2.98797e-19 $X=2.5 $Y=0.755
c269 127 0 2.70767e-19 $X=-0.05 $Y=0
r270 238 240 4.43367 $w=3.05e-07 $l=9.52e-06 $layer=MET1_cond $X=0.335 $Y=0.152
+ $X2=9.855 $Y2=0.152
r271 214 234 3.10218 $w=3.05e-07 $l=8.5e-08 $layer=LI1_cond $X=9.795 $Y=0.152
+ $X2=9.71 $Y2=0.152
r272 210 234 3.51065 $w=1.7e-07 $l=1.53e-07 $layer=LI1_cond $X=9.71 $Y=0.305
+ $X2=9.71 $Y2=0.152
r273 210 212 29.3583 $w=1.68e-07 $l=4.5e-07 $layer=LI1_cond $X=9.71 $Y=0.305
+ $X2=9.71 $Y2=0.755
r274 206 233 3.10218 $w=3.05e-07 $l=8.5e-08 $layer=LI1_cond $X=8.835 $Y=0.152
+ $X2=8.75 $Y2=0.152
r275 205 234 3.10218 $w=3.05e-07 $l=8.5e-08 $layer=LI1_cond $X=9.625 $Y=0.152
+ $X2=9.71 $Y2=0.152
r276 201 233 3.51065 $w=1.7e-07 $l=1.53e-07 $layer=LI1_cond $X=8.75 $Y=0.305
+ $X2=8.75 $Y2=0.152
r277 201 203 28.3797 $w=1.68e-07 $l=4.35e-07 $layer=LI1_cond $X=8.75 $Y=0.305
+ $X2=8.75 $Y2=0.74
r278 194 232 3.10218 $w=3.05e-07 $l=8.5e-08 $layer=LI1_cond $X=7.555 $Y=0.152
+ $X2=7.47 $Y2=0.152
r279 193 233 3.10218 $w=3.05e-07 $l=8.5e-08 $layer=LI1_cond $X=8.665 $Y=0.152
+ $X2=8.75 $Y2=0.152
r280 189 232 3.51065 $w=1.7e-07 $l=1.53e-07 $layer=LI1_cond $X=7.47 $Y=0.305
+ $X2=7.47 $Y2=0.152
r281 189 191 29.3583 $w=1.68e-07 $l=4.5e-07 $layer=LI1_cond $X=7.47 $Y=0.305
+ $X2=7.47 $Y2=0.755
r282 184 232 3.10218 $w=3.05e-07 $l=8.5e-08 $layer=LI1_cond $X=7.385 $Y=0.152
+ $X2=7.47 $Y2=0.152
r283 180 182 29.3583 $w=1.68e-07 $l=4.5e-07 $layer=LI1_cond $X=6.52 $Y=0.305
+ $X2=6.52 $Y2=0.755
r284 173 228 3.10218 $w=3.05e-07 $l=8.5e-08 $layer=LI1_cond $X=4.855 $Y=0.152
+ $X2=4.77 $Y2=0.152
r285 168 228 3.51065 $w=1.7e-07 $l=1.53e-07 $layer=LI1_cond $X=4.77 $Y=0.305
+ $X2=4.77 $Y2=0.152
r286 168 170 28.3797 $w=1.68e-07 $l=4.35e-07 $layer=LI1_cond $X=4.77 $Y=0.305
+ $X2=4.77 $Y2=0.74
r287 160 228 3.10218 $w=3.05e-07 $l=8.5e-08 $layer=LI1_cond $X=4.685 $Y=0.152
+ $X2=4.77 $Y2=0.152
r288 156 158 29.3583 $w=1.68e-07 $l=4.5e-07 $layer=LI1_cond $X=3.02 $Y=0.305
+ $X2=3.02 $Y2=0.755
r289 155 224 3.10218 $w=3.05e-07 $l=8.5e-08 $layer=LI1_cond $X=2.585 $Y=0.152
+ $X2=2.5 $Y2=0.152
r290 154 155 13.2248 $w=3.03e-07 $l=3.5e-07 $layer=LI1_cond $X=2.935 $Y=0.152
+ $X2=2.585 $Y2=0.152
r291 150 224 3.51065 $w=1.7e-07 $l=1.53e-07 $layer=LI1_cond $X=2.5 $Y=0.305
+ $X2=2.5 $Y2=0.152
r292 150 152 29.3583 $w=1.68e-07 $l=4.5e-07 $layer=LI1_cond $X=2.5 $Y=0.305
+ $X2=2.5 $Y2=0.755
r293 143 223 3.10218 $w=3.05e-07 $l=8.5e-08 $layer=LI1_cond $X=1.305 $Y=0.152
+ $X2=1.22 $Y2=0.152
r294 142 224 3.10218 $w=3.05e-07 $l=8.5e-08 $layer=LI1_cond $X=2.415 $Y=0.152
+ $X2=2.5 $Y2=0.152
r295 138 223 3.51065 $w=1.7e-07 $l=1.53e-07 $layer=LI1_cond $X=1.22 $Y=0.305
+ $X2=1.22 $Y2=0.152
r296 138 140 28.3797 $w=1.68e-07 $l=4.35e-07 $layer=LI1_cond $X=1.22 $Y=0.305
+ $X2=1.22 $Y2=0.74
r297 133 223 3.10218 $w=3.05e-07 $l=8.5e-08 $layer=LI1_cond $X=1.135 $Y=0.152
+ $X2=1.22 $Y2=0.152
r298 129 131 29.3583 $w=1.68e-07 $l=4.5e-07 $layer=LI1_cond $X=0.26 $Y=0.305
+ $X2=0.26 $Y2=0.755
r299 127 240 1.24 $w=1.7e-07 $l=1.275e-06 $layer=mcon $count=7 $X=9.855 $Y=0.19
+ $X2=9.855 $Y2=0.19
r300 127 238 1.24 $w=1.7e-07 $l=1.275e-06 $layer=mcon $count=7 $X=0.335 $Y=0.19
+ $X2=0.335 $Y2=0.19
r301 127 180 3.51065 $w=1.7e-07 $l=1.53e-07 $layer=LI1_cond $X=6.52 $Y=0.152
+ $X2=6.52 $Y2=0.305
r302 127 172 3.10218 $w=3.05e-07 $l=8.5e-08 $layer=LI1_cond $X=6.52 $Y=0.152
+ $X2=6.435 $Y2=0.152
r303 127 185 3.10218 $w=3.05e-07 $l=8.5e-08 $layer=LI1_cond $X=6.52 $Y=0.152
+ $X2=6.605 $Y2=0.152
r304 127 156 3.51065 $w=1.7e-07 $l=1.53e-07 $layer=LI1_cond $X=3.02 $Y=0.152
+ $X2=3.02 $Y2=0.305
r305 127 154 3.10218 $w=3.05e-07 $l=8.5e-08 $layer=LI1_cond $X=3.02 $Y=0.152
+ $X2=2.935 $Y2=0.152
r306 127 161 3.10218 $w=3.05e-07 $l=8.5e-08 $layer=LI1_cond $X=3.02 $Y=0.152
+ $X2=3.105 $Y2=0.152
r307 127 129 4.39984 $w=1.7e-07 $l=1.92023e-07 $layer=LI1_cond $X=0.172 $Y=0.152
+ $X2=0.26 $Y2=0.305
r308 127 134 3.15839 $w=3.05e-07 $l=1.73e-07 $layer=LI1_cond $X=0.172 $Y=0.152
+ $X2=0.345 $Y2=0.152
r309 127 214 2.4 $w=3.05e-07 $l=6e-08 $layer=LI1_cond $X=9.855 $Y=0.152
+ $X2=9.795 $Y2=0.152
r310 127 205 17.0033 $w=3.03e-07 $l=4.5e-07 $layer=LI1_cond $X=9.175 $Y=0.152
+ $X2=9.625 $Y2=0.152
r311 127 206 12.8469 $w=3.03e-07 $l=3.4e-07 $layer=LI1_cond $X=9.175 $Y=0.152
+ $X2=8.835 $Y2=0.152
r312 127 193 6.42345 $w=3.03e-07 $l=1.7e-07 $layer=LI1_cond $X=8.495 $Y=0.152
+ $X2=8.665 $Y2=0.152
r313 127 194 9.8241 $w=3.03e-07 $l=2.6e-07 $layer=LI1_cond $X=7.815 $Y=0.152
+ $X2=7.555 $Y2=0.152
r314 127 184 9.44625 $w=3.03e-07 $l=2.5e-07 $layer=LI1_cond $X=7.135 $Y=0.152
+ $X2=7.385 $Y2=0.152
r315 127 185 20.0261 $w=3.03e-07 $l=5.3e-07 $layer=LI1_cond $X=7.135 $Y=0.152
+ $X2=6.605 $Y2=0.152
r316 127 172 24.9381 $w=3.03e-07 $l=6.6e-07 $layer=LI1_cond $X=5.775 $Y=0.152
+ $X2=6.435 $Y2=0.152
r317 127 173 9.0684 $w=3.03e-07 $l=2.4e-07 $layer=LI1_cond $X=5.095 $Y=0.152
+ $X2=4.855 $Y2=0.152
r318 127 160 10.202 $w=3.03e-07 $l=2.7e-07 $layer=LI1_cond $X=4.415 $Y=0.152
+ $X2=4.685 $Y2=0.152
r319 127 161 23.8046 $w=3.03e-07 $l=6.3e-07 $layer=LI1_cond $X=3.735 $Y=0.152
+ $X2=3.105 $Y2=0.152
r320 127 142 1.5114 $w=3.03e-07 $l=4e-08 $layer=LI1_cond $X=2.375 $Y=0.152
+ $X2=2.415 $Y2=0.152
r321 127 143 14.7362 $w=3.03e-07 $l=3.9e-07 $layer=LI1_cond $X=1.695 $Y=0.152
+ $X2=1.305 $Y2=0.152
r322 127 133 4.5342 $w=3.03e-07 $l=1.2e-07 $layer=LI1_cond $X=1.015 $Y=0.152
+ $X2=1.135 $Y2=0.152
r323 127 134 25.316 $w=3.03e-07 $l=6.7e-07 $layer=LI1_cond $X=1.015 $Y=0.152
+ $X2=0.345 $Y2=0.152
r324 9 212 182 $w=1.7e-07 $l=2.4e-07 $layer=licon1_NDIFF $count=1 $X=9.57
+ $Y=0.575 $X2=9.71 $Y2=0.755
r325 8 203 182 $w=1.7e-07 $l=2.24332e-07 $layer=licon1_NDIFF $count=1 $X=8.61
+ $Y=0.575 $X2=8.75 $Y2=0.74
r326 7 191 182 $w=1.7e-07 $l=2.34307e-07 $layer=licon1_NDIFF $count=1 $X=7.345
+ $Y=0.575 $X2=7.47 $Y2=0.755
r327 6 182 182 $w=1.7e-07 $l=2.4e-07 $layer=licon1_NDIFF $count=1 $X=6.38
+ $Y=0.575 $X2=6.52 $Y2=0.755
r328 5 170 182 $w=1.7e-07 $l=2.24332e-07 $layer=licon1_NDIFF $count=1 $X=4.63
+ $Y=0.575 $X2=4.77 $Y2=0.74
r329 4 158 182 $w=1.7e-07 $l=2.34307e-07 $layer=licon1_NDIFF $count=1 $X=2.895
+ $Y=0.575 $X2=3.02 $Y2=0.755
r330 3 152 182 $w=1.7e-07 $l=2.4e-07 $layer=licon1_NDIFF $count=1 $X=2.36
+ $Y=0.575 $X2=2.5 $Y2=0.755
r331 2 140 182 $w=1.7e-07 $l=2.18746e-07 $layer=licon1_NDIFF $count=1 $X=1.095
+ $Y=0.575 $X2=1.22 $Y2=0.74
r332 1 131 182 $w=1.7e-07 $l=2.34307e-07 $layer=licon1_NDIFF $count=1 $X=0.135
+ $Y=0.575 $X2=0.26 $Y2=0.755
.ends

.subckt PM_SKY130_OSU_SC_12T_HS__DFFSR_L%VDD 1 2 3 4 5 6 7 89 93 95 103 105 111
+ 113 121 123 131 133 139 141 149 153 168 172
r167 168 172 4.43367 $w=3.05e-07 $l=9.52e-06 $layer=MET1_cond $X=0.335 $Y=4.287
+ $X2=9.855 $Y2=4.287
r168 156 168 1.24 $w=1.7e-07 $l=1.275e-06 $layer=mcon $count=7 $X=0.335 $Y=4.25
+ $X2=0.335 $Y2=4.25
r169 153 172 1.24 $w=1.7e-07 $l=1.275e-06 $layer=mcon $count=7 $X=9.855 $Y=4.25
+ $X2=9.855 $Y2=4.25
r170 151 166 3.10218 $w=3.05e-07 $l=8.5e-08 $layer=LI1_cond $X=9.795 $Y=4.287
+ $X2=9.71 $Y2=4.287
r171 151 153 2.4 $w=3.05e-07 $l=6e-08 $layer=LI1_cond $X=9.795 $Y=4.287
+ $X2=9.855 $Y2=4.287
r172 147 166 3.51065 $w=1.7e-07 $l=1.52e-07 $layer=LI1_cond $X=9.71 $Y=4.135
+ $X2=9.71 $Y2=4.287
r173 147 149 56.7594 $w=1.68e-07 $l=8.7e-07 $layer=LI1_cond $X=9.71 $Y=4.135
+ $X2=9.71 $Y2=3.265
r174 144 146 25.6938 $w=3.03e-07 $l=6.8e-07 $layer=LI1_cond $X=8.495 $Y=4.287
+ $X2=9.175 $Y2=4.287
r175 142 165 3.10218 $w=3.05e-07 $l=8.5e-08 $layer=LI1_cond $X=7.985 $Y=4.287
+ $X2=7.9 $Y2=4.287
r176 142 144 19.2704 $w=3.03e-07 $l=5.1e-07 $layer=LI1_cond $X=7.985 $Y=4.287
+ $X2=8.495 $Y2=4.287
r177 141 166 3.10218 $w=3.05e-07 $l=8.5e-08 $layer=LI1_cond $X=9.625 $Y=4.287
+ $X2=9.71 $Y2=4.287
r178 141 146 17.0033 $w=3.03e-07 $l=4.5e-07 $layer=LI1_cond $X=9.625 $Y=4.287
+ $X2=9.175 $Y2=4.287
r179 137 165 3.51065 $w=1.7e-07 $l=1.52e-07 $layer=LI1_cond $X=7.9 $Y=4.135
+ $X2=7.9 $Y2=4.287
r180 137 139 28.3797 $w=1.68e-07 $l=4.35e-07 $layer=LI1_cond $X=7.9 $Y=4.135
+ $X2=7.9 $Y2=3.7
r181 134 163 3.10218 $w=3.05e-07 $l=8.5e-08 $layer=LI1_cond $X=6.605 $Y=4.287
+ $X2=6.52 $Y2=4.287
r182 134 136 20.0261 $w=3.03e-07 $l=5.3e-07 $layer=LI1_cond $X=6.605 $Y=4.287
+ $X2=7.135 $Y2=4.287
r183 133 165 3.10218 $w=3.05e-07 $l=8.5e-08 $layer=LI1_cond $X=7.815 $Y=4.287
+ $X2=7.9 $Y2=4.287
r184 133 136 25.6938 $w=3.03e-07 $l=6.8e-07 $layer=LI1_cond $X=7.815 $Y=4.287
+ $X2=7.135 $Y2=4.287
r185 129 163 3.51065 $w=1.7e-07 $l=1.52e-07 $layer=LI1_cond $X=6.52 $Y=4.135
+ $X2=6.52 $Y2=4.287
r186 129 131 60.3476 $w=1.68e-07 $l=9.25e-07 $layer=LI1_cond $X=6.52 $Y=4.135
+ $X2=6.52 $Y2=3.21
r187 126 128 25.6938 $w=3.03e-07 $l=6.8e-07 $layer=LI1_cond $X=5.095 $Y=4.287
+ $X2=5.775 $Y2=4.287
r188 124 161 3.10218 $w=3.05e-07 $l=8.5e-08 $layer=LI1_cond $X=4.855 $Y=4.287
+ $X2=4.77 $Y2=4.287
r189 124 126 9.0684 $w=3.03e-07 $l=2.4e-07 $layer=LI1_cond $X=4.855 $Y=4.287
+ $X2=5.095 $Y2=4.287
r190 123 163 3.10218 $w=3.05e-07 $l=8.5e-08 $layer=LI1_cond $X=6.435 $Y=4.287
+ $X2=6.52 $Y2=4.287
r191 123 128 24.9381 $w=3.03e-07 $l=6.6e-07 $layer=LI1_cond $X=6.435 $Y=4.287
+ $X2=5.775 $Y2=4.287
r192 119 161 3.51065 $w=1.7e-07 $l=1.52e-07 $layer=LI1_cond $X=4.77 $Y=4.135
+ $X2=4.77 $Y2=4.287
r193 119 121 54.8021 $w=1.68e-07 $l=8.4e-07 $layer=LI1_cond $X=4.77 $Y=4.135
+ $X2=4.77 $Y2=3.295
r194 116 118 25.6938 $w=3.03e-07 $l=6.8e-07 $layer=LI1_cond $X=3.735 $Y=4.287
+ $X2=4.415 $Y2=4.287
r195 114 160 3.10218 $w=3.05e-07 $l=8.5e-08 $layer=LI1_cond $X=3.105 $Y=4.287
+ $X2=3.02 $Y2=4.287
r196 114 116 23.8046 $w=3.03e-07 $l=6.3e-07 $layer=LI1_cond $X=3.105 $Y=4.287
+ $X2=3.735 $Y2=4.287
r197 113 161 3.10218 $w=3.05e-07 $l=8.5e-08 $layer=LI1_cond $X=4.685 $Y=4.287
+ $X2=4.77 $Y2=4.287
r198 113 118 10.202 $w=3.03e-07 $l=2.7e-07 $layer=LI1_cond $X=4.685 $Y=4.287
+ $X2=4.415 $Y2=4.287
r199 109 160 3.51065 $w=1.7e-07 $l=1.52e-07 $layer=LI1_cond $X=3.02 $Y=4.135
+ $X2=3.02 $Y2=4.287
r200 109 111 54.8021 $w=1.68e-07 $l=8.4e-07 $layer=LI1_cond $X=3.02 $Y=4.135
+ $X2=3.02 $Y2=3.295
r201 106 158 3.10218 $w=3.05e-07 $l=8.5e-08 $layer=LI1_cond $X=2.155 $Y=4.287
+ $X2=2.07 $Y2=4.287
r202 106 108 8.3127 $w=3.03e-07 $l=2.2e-07 $layer=LI1_cond $X=2.155 $Y=4.287
+ $X2=2.375 $Y2=4.287
r203 105 160 3.10218 $w=3.05e-07 $l=8.5e-08 $layer=LI1_cond $X=2.935 $Y=4.287
+ $X2=3.02 $Y2=4.287
r204 105 108 21.1596 $w=3.03e-07 $l=5.6e-07 $layer=LI1_cond $X=2.935 $Y=4.287
+ $X2=2.375 $Y2=4.287
r205 101 158 3.51065 $w=1.7e-07 $l=1.52e-07 $layer=LI1_cond $X=2.07 $Y=4.135
+ $X2=2.07 $Y2=4.287
r206 101 103 28.3797 $w=1.68e-07 $l=4.35e-07 $layer=LI1_cond $X=2.07 $Y=4.135
+ $X2=2.07 $Y2=3.7
r207 98 100 25.6938 $w=3.03e-07 $l=6.8e-07 $layer=LI1_cond $X=1.015 $Y=4.287
+ $X2=1.695 $Y2=4.287
r208 96 156 3.16604 $w=3.05e-07 $l=1.73e-07 $layer=LI1_cond $X=0.345 $Y=4.287
+ $X2=0.172 $Y2=4.287
r209 96 98 25.316 $w=3.03e-07 $l=6.7e-07 $layer=LI1_cond $X=0.345 $Y=4.287
+ $X2=1.015 $Y2=4.287
r210 95 158 3.10218 $w=3.05e-07 $l=8.5e-08 $layer=LI1_cond $X=1.985 $Y=4.287
+ $X2=2.07 $Y2=4.287
r211 95 100 10.9577 $w=3.03e-07 $l=2.9e-07 $layer=LI1_cond $X=1.985 $Y=4.287
+ $X2=1.695 $Y2=4.287
r212 91 156 4.3922 $w=1.7e-07 $l=1.90997e-07 $layer=LI1_cond $X=0.26 $Y=4.135
+ $X2=0.172 $Y2=4.287
r213 91 93 32.6203 $w=1.68e-07 $l=5e-07 $layer=LI1_cond $X=0.26 $Y=4.135
+ $X2=0.26 $Y2=3.635
r214 89 153 182 $w=1.7e-07 $l=2.43824e-07 $layer=licon1_NTAP_notbjt $count=1
+ $X=9.65 $Y=4.135 $X2=9.855 $Y2=4.22
r215 89 146 182 $w=1.7e-07 $l=2.43824e-07 $layer=licon1_NTAP_notbjt $count=1
+ $X=8.97 $Y=4.135 $X2=9.175 $Y2=4.22
r216 89 144 182 $w=1.7e-07 $l=2.43824e-07 $layer=licon1_NTAP_notbjt $count=1
+ $X=8.29 $Y=4.135 $X2=8.495 $Y2=4.22
r217 89 165 182 $w=1.7e-07 $l=2.43824e-07 $layer=licon1_NTAP_notbjt $count=1
+ $X=7.61 $Y=4.135 $X2=7.815 $Y2=4.22
r218 89 136 182 $w=1.7e-07 $l=2.43824e-07 $layer=licon1_NTAP_notbjt $count=1
+ $X=6.93 $Y=4.135 $X2=7.135 $Y2=4.22
r219 89 163 182 $w=1.7e-07 $l=2.43824e-07 $layer=licon1_NTAP_notbjt $count=1
+ $X=6.25 $Y=4.135 $X2=6.455 $Y2=4.22
r220 89 128 182 $w=1.7e-07 $l=2.43824e-07 $layer=licon1_NTAP_notbjt $count=1
+ $X=5.57 $Y=4.135 $X2=5.775 $Y2=4.22
r221 89 126 182 $w=1.7e-07 $l=2.43824e-07 $layer=licon1_NTAP_notbjt $count=1
+ $X=4.89 $Y=4.135 $X2=5.095 $Y2=4.22
r222 89 118 182 $w=1.7e-07 $l=2.43824e-07 $layer=licon1_NTAP_notbjt $count=1
+ $X=4.21 $Y=4.135 $X2=4.415 $Y2=4.22
r223 89 116 182 $w=1.7e-07 $l=2.43824e-07 $layer=licon1_NTAP_notbjt $count=1
+ $X=3.53 $Y=4.135 $X2=3.735 $Y2=4.22
r224 89 160 182 $w=1.7e-07 $l=2.43824e-07 $layer=licon1_NTAP_notbjt $count=1
+ $X=2.85 $Y=4.135 $X2=3.055 $Y2=4.22
r225 89 108 182 $w=1.7e-07 $l=2.43824e-07 $layer=licon1_NTAP_notbjt $count=1
+ $X=2.17 $Y=4.135 $X2=2.375 $Y2=4.22
r226 89 100 182 $w=1.7e-07 $l=2.43824e-07 $layer=licon1_NTAP_notbjt $count=1
+ $X=1.49 $Y=4.135 $X2=1.695 $Y2=4.22
r227 89 98 182 $w=1.7e-07 $l=2.43824e-07 $layer=licon1_NTAP_notbjt $count=1
+ $X=0.81 $Y=4.135 $X2=1.015 $Y2=4.22
r228 89 156 182 $w=1.7e-07 $l=2.43824e-07 $layer=licon1_NTAP_notbjt $count=1
+ $X=0.13 $Y=4.135 $X2=0.335 $Y2=4.22
r229 7 149 300 $w=1.7e-07 $l=3.01993e-07 $layer=licon1_PDIFF $count=2 $X=9.57
+ $Y=3.025 $X2=9.71 $Y2=3.265
r230 6 139 600 $w=1.7e-07 $l=1.1629e-06 $layer=licon1_PDIFF $count=1 $X=7.76
+ $Y=2.605 $X2=7.9 $Y2=3.7
r231 5 131 300 $w=1.7e-07 $l=6.71361e-07 $layer=licon1_PDIFF $count=2 $X=6.38
+ $Y=2.605 $X2=6.52 $Y2=3.21
r232 4 121 300 $w=1.7e-07 $l=7.56769e-07 $layer=licon1_PDIFF $count=2 $X=4.63
+ $Y=2.605 $X2=4.77 $Y2=3.295
r233 3 111 300 $w=1.7e-07 $l=7.499e-07 $layer=licon1_PDIFF $count=2 $X=2.895
+ $Y=2.605 $X2=3.02 $Y2=3.295
r234 2 103 600 $w=1.7e-07 $l=1.1629e-06 $layer=licon1_PDIFF $count=1 $X=1.93
+ $Y=2.605 $X2=2.07 $Y2=3.7
r235 1 93 600 $w=1.7e-07 $l=1.09071e-06 $layer=licon1_PDIFF $count=1 $X=0.135
+ $Y=2.605 $X2=0.26 $Y2=3.635
.ends

.subckt PM_SKY130_OSU_SC_12T_HS__DFFSR_L%RN 3 5 7 13 15 21
c42 21 0 7.48684e-20 $X=0.325 $Y=2.85
c43 3 0 1.41286e-20 $X=0.475 $Y=0.85
r44 19 21 0.00301932 $w=2.07e-07 $l=5e-09 $layer=MET1_cond $X=0.32 $Y=2.85
+ $X2=0.325 $Y2=2.85
r45 15 17 8.98947 $w=2.85e-07 $l=2.1e-07 $layer=LI1_cond $X=0.32 $Y=1.825
+ $X2=0.53 $Y2=1.825
r46 13 19 9.3 $w=1.7e-07 $l=1.7e-07 $layer=mcon $count=1 $X=0.32 $Y=2.85
+ $X2=0.32 $Y2=2.85
r47 11 15 3.76007 $w=1.7e-07 $l=1.65e-07 $layer=LI1_cond $X=0.32 $Y=1.99
+ $X2=0.32 $Y2=1.825
r48 11 13 56.107 $w=1.68e-07 $l=8.6e-07 $layer=LI1_cond $X=0.32 $Y=1.99 $X2=0.32
+ $Y2=2.85
r49 10 17 145.28 $w=1.7e-07 $l=1.7e-07 $layer=licon1_POLY $count=1 $X=0.53
+ $Y=1.825 $X2=0.53 $Y2=1.825
r50 5 10 38.945 $w=2.68e-07 $l=1.90526e-07 $layer=POLY_cond $X=0.475 $Y=1.99
+ $X2=0.53 $Y2=1.825
r51 5 7 638.394 $w=1.5e-07 $l=1.245e-06 $layer=POLY_cond $X=0.475 $Y=1.99
+ $X2=0.475 $Y2=3.235
r52 1 10 39.8442 $w=2.68e-07 $l=1.95576e-07 $layer=POLY_cond $X=0.475 $Y=1.655
+ $X2=0.53 $Y2=1.825
r53 1 3 412.777 $w=1.5e-07 $l=8.05e-07 $layer=POLY_cond $X=0.475 $Y=1.655
+ $X2=0.475 $Y2=0.85
.ends

.subckt PM_SKY130_OSU_SC_12T_HS__DFFSR_L%A_110_115# 1 3 10 13 15 17 18 20 23 26
+ 29 33 36 39 43 47 54 55 57 64 67 71 72 73 77 80 81
c229 77 0 1.63455e-19 $X=0.87 $Y=1.37
c230 71 0 1.41286e-20 $X=0.87 $Y=1.255
c231 67 0 1.49156e-19 $X=8.86 $Y=1.27
c232 64 0 7.48684e-20 $X=0.87 $Y=2.26
c233 57 0 1.98452e-19 $X=1.23 $Y=1.27
c234 39 0 1.09867e-19 $X=8.545 $Y=2.27
c235 26 0 8.31638e-20 $X=8.8 $Y=2.125
r236 80 81 0.0806629 $w=2.95e-07 $l=1.15e-07 $layer=MET1_cond $X=8.862 $Y=1.37
+ $X2=8.862 $Y2=1.255
r237 74 81 0.16369 $w=1.7e-07 $l=1.7e-07 $layer=MET1_cond $X=8.86 $Y=1.085
+ $X2=8.86 $Y2=1.255
r238 72 74 0.0698411 $w=1.7e-07 $l=1.20208e-07 $layer=MET1_cond $X=8.775 $Y=1
+ $X2=8.86 $Y2=1.085
r239 72 73 7.52974 $w=1.7e-07 $l=7.82e-06 $layer=MET1_cond $X=8.775 $Y=1
+ $X2=0.955 $Y2=1
r240 71 77 0.0804477 $w=2.9e-07 $l=1.15e-07 $layer=MET1_cond $X=0.87 $Y=1.255
+ $X2=0.87 $Y2=1.37
r241 70 73 0.0698411 $w=1.7e-07 $l=1.20208e-07 $layer=MET1_cond $X=0.87 $Y=1.085
+ $X2=0.955 $Y2=1
r242 70 71 0.16369 $w=1.7e-07 $l=1.7e-07 $layer=MET1_cond $X=0.87 $Y=1.085
+ $X2=0.87 $Y2=1.255
r243 69 80 9.3 $w=1.7e-07 $l=1.7e-07 $layer=mcon $count=1 $X=8.86 $Y=1.37
+ $X2=8.86 $Y2=1.37
r244 67 69 4.51852 $w=2.7e-07 $l=1e-07 $layer=LI1_cond $X=8.86 $Y=1.27 $X2=8.86
+ $Y2=1.37
r245 62 64 11.7433 $w=1.68e-07 $l=1.8e-07 $layer=LI1_cond $X=0.69 $Y=2.26
+ $X2=0.87 $Y2=2.26
r246 59 61 11.7433 $w=1.68e-07 $l=1.8e-07 $layer=LI1_cond $X=0.69 $Y=1.27
+ $X2=0.87 $Y2=1.27
r247 55 61 5.54545 $w=1.68e-07 $l=8.5e-08 $layer=LI1_cond $X=0.955 $Y=1.27
+ $X2=0.87 $Y2=1.27
r248 55 57 17.9412 $w=1.68e-07 $l=2.75e-07 $layer=LI1_cond $X=0.955 $Y=1.27
+ $X2=1.23 $Y2=1.27
r249 54 77 9.3 $w=1.7e-07 $l=1.7e-07 $layer=mcon $count=1 $X=0.87 $Y=1.37
+ $X2=0.87 $Y2=1.37
r250 52 64 0.716491 $w=1.7e-07 $l=8.5e-08 $layer=LI1_cond $X=0.87 $Y=2.175
+ $X2=0.87 $Y2=2.26
r251 52 54 52.5187 $w=1.68e-07 $l=8.05e-07 $layer=LI1_cond $X=0.87 $Y=2.175
+ $X2=0.87 $Y2=1.37
r252 51 61 0.716491 $w=1.7e-07 $l=8.5e-08 $layer=LI1_cond $X=0.87 $Y=1.355
+ $X2=0.87 $Y2=1.27
r253 51 54 0.97861 $w=1.68e-07 $l=1.5e-08 $layer=LI1_cond $X=0.87 $Y=1.355
+ $X2=0.87 $Y2=1.37
r254 47 49 44.3636 $w=1.68e-07 $l=6.8e-07 $layer=LI1_cond $X=0.69 $Y=2.955
+ $X2=0.69 $Y2=3.635
r255 45 62 0.716491 $w=1.7e-07 $l=8.5e-08 $layer=LI1_cond $X=0.69 $Y=2.345
+ $X2=0.69 $Y2=2.26
r256 45 47 39.7968 $w=1.68e-07 $l=6.1e-07 $layer=LI1_cond $X=0.69 $Y=2.345
+ $X2=0.69 $Y2=2.955
r257 41 59 0.716491 $w=1.7e-07 $l=8.5e-08 $layer=LI1_cond $X=0.69 $Y=1.185
+ $X2=0.69 $Y2=1.27
r258 41 43 28.0535 $w=1.68e-07 $l=4.3e-07 $layer=LI1_cond $X=0.69 $Y=1.185
+ $X2=0.69 $Y2=0.755
r259 39 40 60.25 $w=2.04e-07 $l=2.55e-07 $layer=POLY_cond $X=8.545 $Y=2.27
+ $X2=8.8 $Y2=2.27
r260 38 67 145.28 $w=1.7e-07 $l=1.7e-07 $layer=licon1_POLY $count=1 $X=8.86
+ $Y=1.27 $X2=8.86 $Y2=1.27
r261 36 38 11.3412 $w=2.55e-07 $l=6e-08 $layer=POLY_cond $X=8.8 $Y=1.255
+ $X2=8.86 $Y2=1.255
r262 32 57 145.28 $w=1.7e-07 $l=1.7e-07 $layer=licon1_POLY $count=1 $X=1.23
+ $Y=1.27 $X2=1.23 $Y2=1.27
r263 32 33 10.7111 $w=2.7e-07 $l=6e-08 $layer=POLY_cond $X=1.23 $Y=1.27 $X2=1.29
+ $Y2=1.27
r264 27 29 69.2234 $w=1.5e-07 $l=1.35e-07 $layer=POLY_cond $X=1.29 $Y=2.4
+ $X2=1.425 $Y2=2.4
r265 26 40 10.0333 $w=1.5e-07 $l=1.45e-07 $layer=POLY_cond $X=8.8 $Y=2.125
+ $X2=8.8 $Y2=2.27
r266 25 36 15.178 $w=1.5e-07 $l=1.8e-07 $layer=POLY_cond $X=8.8 $Y=1.435 $X2=8.8
+ $Y2=1.255
r267 25 26 353.809 $w=1.5e-07 $l=6.9e-07 $layer=POLY_cond $X=8.8 $Y=1.435
+ $X2=8.8 $Y2=2.125
r268 21 39 10.0333 $w=1.5e-07 $l=1.45e-07 $layer=POLY_cond $X=8.545 $Y=2.415
+ $X2=8.545 $Y2=2.27
r269 21 23 420.468 $w=1.5e-07 $l=8.2e-07 $layer=POLY_cond $X=8.545 $Y=2.415
+ $X2=8.545 $Y2=3.235
r270 18 36 50.0902 $w=2.55e-07 $l=3.43402e-07 $layer=POLY_cond $X=8.535 $Y=1.075
+ $X2=8.8 $Y2=1.255
r271 18 20 93.1867 $w=1.5e-07 $l=2.9e-07 $layer=POLY_cond $X=8.535 $Y=1.075
+ $X2=8.535 $Y2=0.785
r272 15 33 25.8852 $w=2.7e-07 $l=2.26164e-07 $layer=POLY_cond $X=1.435 $Y=1.105
+ $X2=1.29 $Y2=1.27
r273 15 17 102.827 $w=1.5e-07 $l=3.2e-07 $layer=POLY_cond $X=1.435 $Y=1.105
+ $X2=1.435 $Y2=0.785
r274 11 29 2.83073 $w=1.5e-07 $l=7.5e-08 $layer=POLY_cond $X=1.425 $Y=2.475
+ $X2=1.425 $Y2=2.4
r275 11 13 389.702 $w=1.5e-07 $l=7.6e-07 $layer=POLY_cond $X=1.425 $Y=2.475
+ $X2=1.425 $Y2=3.235
r276 10 27 2.83073 $w=1.5e-07 $l=7.5e-08 $layer=POLY_cond $X=1.29 $Y=2.325
+ $X2=1.29 $Y2=2.4
r277 9 33 16.5046 $w=1.5e-07 $l=1.65e-07 $layer=POLY_cond $X=1.29 $Y=1.435
+ $X2=1.29 $Y2=1.27
r278 9 10 456.362 $w=1.5e-07 $l=8.9e-07 $layer=POLY_cond $X=1.29 $Y=1.435
+ $X2=1.29 $Y2=2.325
r279 3 49 400 $w=1.7e-07 $l=1.09777e-06 $layer=licon1_PDIFF $count=1 $X=0.55
+ $Y=2.605 $X2=0.69 $Y2=3.635
r280 3 47 400 $w=1.7e-07 $l=4.14126e-07 $layer=licon1_PDIFF $count=1 $X=0.55
+ $Y=2.605 $X2=0.69 $Y2=2.955
r281 1 43 182 $w=1.7e-07 $l=2.4e-07 $layer=licon1_NDIFF $count=1 $X=0.55
+ $Y=0.575 $X2=0.69 $Y2=0.755
.ends

.subckt PM_SKY130_OSU_SC_12T_HS__DFFSR_L%SN 1 2 5 9 13 17 22 25 29 32 34 37 39
+ 45 47 48 49 56
c193 48 0 1.36413e-19 $X=7.79 $Y=2.85
c194 29 0 1.5152e-19 $X=1.71 $Y=2.62
c195 2 0 1.95862e-19 $X=1.89 $Y=1.785
c196 1 0 1.98452e-19 $X=1.89 $Y=1.405
r197 54 56 0.00223214 $w=2.8e-07 $l=5e-09 $layer=MET1_cond $X=7.935 $Y=2.802
+ $X2=7.94 $Y2=2.802
r198 49 51 0.100167 $w=2.3e-07 $l=1.4e-07 $layer=MET1_cond $X=2.195 $Y=2.85
+ $X2=2.055 $Y2=2.85
r199 48 54 0.0838839 $w=2.8e-07 $l=1.67287e-07 $layer=MET1_cond $X=7.79 $Y=2.85
+ $X2=7.935 $Y2=2.802
r200 48 49 5.38733 $w=1.7e-07 $l=5.595e-06 $layer=MET1_cond $X=7.79 $Y=2.85
+ $X2=2.195 $Y2=2.85
r201 42 45 3.91831 $w=2.48e-07 $l=8.5e-08 $layer=LI1_cond $X=7.935 $Y=1.815
+ $X2=8.02 $Y2=1.815
r202 41 51 9.3 $w=1.7e-07 $l=1.7e-07 $layer=mcon $count=1 $X=2.055 $Y=2.85
+ $X2=2.055 $Y2=2.85
r203 39 41 17.9872 $w=2.34e-07 $l=3.45e-07 $layer=LI1_cond $X=1.71 $Y=2.777
+ $X2=2.055 $Y2=2.777
r204 34 54 9.3 $w=1.7e-07 $l=1.7e-07 $layer=mcon $count=1 $X=7.935 $Y=2.845
+ $X2=7.935 $Y2=2.845
r205 32 47 5.51377 $w=1.73e-07 $l=8.7e-08 $layer=LI1_cond $X=7.937 $Y=2.482
+ $X2=7.937 $Y2=2.395
r206 32 34 23.0057 $w=1.73e-07 $l=3.63e-07 $layer=LI1_cond $X=7.937 $Y=2.482
+ $X2=7.937 $Y2=2.845
r207 30 42 2.99516 $w=1.7e-07 $l=1.25e-07 $layer=LI1_cond $X=7.935 $Y=1.94
+ $X2=7.935 $Y2=1.815
r208 30 47 29.6845 $w=1.68e-07 $l=4.55e-07 $layer=LI1_cond $X=7.935 $Y=1.94
+ $X2=7.935 $Y2=2.395
r209 29 39 2.60974 $w=1.7e-07 $l=1.57e-07 $layer=LI1_cond $X=1.71 $Y=2.62
+ $X2=1.71 $Y2=2.777
r210 28 37 5.66838 $w=3.28e-07 $l=8.5e-08 $layer=LI1_cond $X=1.71 $Y=2.035
+ $X2=1.71 $Y2=1.95
r211 28 29 38.1658 $w=1.68e-07 $l=5.85e-07 $layer=LI1_cond $X=1.71 $Y=2.035
+ $X2=1.71 $Y2=2.62
r212 25 45 145.28 $w=1.7e-07 $l=1.7e-07 $layer=licon1_POLY $count=1 $X=8.02
+ $Y=1.775 $X2=8.02 $Y2=1.775
r213 25 27 46.135 $w=3.15e-07 $l=1.65e-07 $layer=POLY_cond $X=8.032 $Y=1.775
+ $X2=8.032 $Y2=1.94
r214 25 26 46.135 $w=3.15e-07 $l=1.65e-07 $layer=POLY_cond $X=8.032 $Y=1.775
+ $X2=8.032 $Y2=1.61
r215 22 23 5.53115 $w=3.05e-07 $l=3.5e-08 $layer=POLY_cond $X=1.855 $Y=1.95
+ $X2=1.89 $Y2=1.95
r216 21 37 145.28 $w=1.7e-07 $l=1.7e-07 $layer=licon1_POLY $count=1 $X=1.71
+ $Y=1.95 $X2=1.71 $Y2=1.95
r217 21 22 22.9148 $w=3.05e-07 $l=1.45e-07 $layer=POLY_cond $X=1.71 $Y=1.95
+ $X2=1.855 $Y2=1.95
r218 17 27 664.032 $w=1.5e-07 $l=1.295e-06 $layer=POLY_cond $X=8.115 $Y=3.235
+ $X2=8.115 $Y2=1.94
r219 13 26 389.702 $w=1.5e-07 $l=7.6e-07 $layer=POLY_cond $X=8.045 $Y=0.85
+ $X2=8.045 $Y2=1.61
r220 9 19 228.181 $w=1.5e-07 $l=4.45e-07 $layer=POLY_cond $X=1.925 $Y=0.85
+ $X2=1.925 $Y2=1.295
r221 3 22 19.3576 $w=1.5e-07 $l=1.65e-07 $layer=POLY_cond $X=1.855 $Y=2.115
+ $X2=1.855 $Y2=1.95
r222 3 5 574.298 $w=1.5e-07 $l=1.12e-06 $layer=POLY_cond $X=1.855 $Y=2.115
+ $X2=1.855 $Y2=3.235
r223 2 23 10.4756 $w=2.2e-07 $l=1.65e-07 $layer=POLY_cond $X=1.89 $Y=1.785
+ $X2=1.89 $Y2=1.95
r224 1 19 38.6248 $w=2.2e-07 $l=1.1e-07 $layer=POLY_cond $X=1.89 $Y=1.405
+ $X2=1.89 $Y2=1.295
r225 1 2 110.842 $w=2.2e-07 $l=3.8e-07 $layer=POLY_cond $X=1.89 $Y=1.405
+ $X2=1.89 $Y2=1.785
.ends

.subckt PM_SKY130_OSU_SC_12T_HS__DFFSR_L%A_432_424# 1 3 11 15 18 22 23 24 25 28
+ 29 30 32 35 41
c109 41 0 1.72079e-19 $X=3.795 $Y=0.755
c110 30 0 1.07085e-19 $X=2.855 $Y=2.705
c111 11 0 1.32807e-19 $X=2.285 $Y=0.85
r112 41 43 3.47578 $w=3.51e-07 $l=1e-07 $layer=LI1_cond $X=3.795 $Y=0.755
+ $X2=3.895 $Y2=0.755
r113 35 37 23.0489 $w=3.38e-07 $l=6.8e-07 $layer=LI1_cond $X=3.895 $Y=2.955
+ $X2=3.895 $Y2=3.635
r114 33 35 2.03372 $w=3.38e-07 $l=6e-08 $layer=LI1_cond $X=3.895 $Y=2.895
+ $X2=3.895 $Y2=2.955
r115 31 41 4.99104 $w=1.7e-07 $l=1.8e-07 $layer=LI1_cond $X=3.795 $Y=0.935
+ $X2=3.795 $Y2=0.755
r116 31 32 17.2888 $w=1.68e-07 $l=2.65e-07 $layer=LI1_cond $X=3.795 $Y=0.935
+ $X2=3.795 $Y2=1.2
r117 29 33 7.85115 $w=1.7e-07 $l=2.61534e-07 $layer=LI1_cond $X=3.725 $Y=2.705
+ $X2=3.895 $Y2=2.895
r118 29 30 56.7594 $w=1.68e-07 $l=8.7e-07 $layer=LI1_cond $X=3.725 $Y=2.705
+ $X2=2.855 $Y2=2.705
r119 28 30 6.81649 $w=1.7e-07 $l=1.20208e-07 $layer=LI1_cond $X=2.77 $Y=2.62
+ $X2=2.855 $Y2=2.705
r120 27 28 16.3102 $w=1.68e-07 $l=2.5e-07 $layer=LI1_cond $X=2.77 $Y=2.37
+ $X2=2.77 $Y2=2.62
r121 26 40 3.40825 $w=1.7e-07 $l=1.03078e-07 $layer=LI1_cond $X=2.38 $Y=2.285
+ $X2=2.295 $Y2=2.325
r122 25 27 6.81649 $w=1.7e-07 $l=1.20208e-07 $layer=LI1_cond $X=2.685 $Y=2.285
+ $X2=2.77 $Y2=2.37
r123 25 26 19.8984 $w=1.68e-07 $l=3.05e-07 $layer=LI1_cond $X=2.685 $Y=2.285
+ $X2=2.38 $Y2=2.285
r124 23 32 6.81649 $w=1.7e-07 $l=1.20208e-07 $layer=LI1_cond $X=3.71 $Y=1.285
+ $X2=3.795 $Y2=1.2
r125 23 24 86.7701 $w=1.68e-07 $l=1.33e-06 $layer=LI1_cond $X=3.71 $Y=1.285
+ $X2=2.38 $Y2=1.285
r126 22 40 3.40825 $w=1.7e-07 $l=1.25e-07 $layer=LI1_cond $X=2.295 $Y=2.2
+ $X2=2.295 $Y2=2.325
r127 21 24 6.81649 $w=1.7e-07 $l=1.20208e-07 $layer=LI1_cond $X=2.295 $Y=1.37
+ $X2=2.38 $Y2=1.285
r128 21 22 54.1497 $w=1.68e-07 $l=8.3e-07 $layer=LI1_cond $X=2.295 $Y=1.37
+ $X2=2.295 $Y2=2.2
r129 18 40 145.28 $w=1.7e-07 $l=1.7e-07 $layer=licon1_POLY $count=1 $X=2.295
+ $Y=2.285 $X2=2.295 $Y2=2.285
r130 18 20 48.4159 $w=2.7e-07 $l=1.65e-07 $layer=POLY_cond $X=2.295 $Y=2.285
+ $X2=2.295 $Y2=2.45
r131 18 19 48.4159 $w=2.7e-07 $l=1.65e-07 $layer=POLY_cond $X=2.295 $Y=2.285
+ $X2=2.295 $Y2=2.12
r132 15 20 402.521 $w=1.5e-07 $l=7.85e-07 $layer=POLY_cond $X=2.285 $Y=3.235
+ $X2=2.285 $Y2=2.45
r133 11 19 651.213 $w=1.5e-07 $l=1.27e-06 $layer=POLY_cond $X=2.285 $Y=0.85
+ $X2=2.285 $Y2=2.12
r134 3 37 400 $w=1.7e-07 $l=1.13695e-06 $layer=licon1_PDIFF $count=1 $X=3.67
+ $Y=2.605 $X2=3.895 $Y2=3.635
r135 3 35 400 $w=1.7e-07 $l=4.48609e-07 $layer=licon1_PDIFF $count=1 $X=3.67
+ $Y=2.605 $X2=3.895 $Y2=2.955
r136 1 43 182 $w=1.7e-07 $l=3.01869e-07 $layer=licon1_NDIFF $count=1 $X=3.67
+ $Y=0.575 $X2=3.895 $Y2=0.755
.ends

.subckt PM_SKY130_OSU_SC_12T_HS__DFFSR_L%D 3 7 10 14 19
c38 19 0 1.36979e-19 $X=3.295 $Y=1.74
c39 10 0 1.98306e-19 $X=3.295 $Y=1.74
c40 7 0 1.07085e-19 $X=3.235 $Y=3.235
r41 14 19 9.3 $w=1.7e-07 $l=1.7e-07 $layer=mcon $count=1 $X=3.295 $Y=1.74
+ $X2=3.295 $Y2=1.74
r42 10 14 145.28 $w=1.7e-07 $l=1.7e-07 $layer=licon1_POLY $count=1 $X=3.295
+ $Y=1.74 $X2=3.295 $Y2=1.74
r43 10 12 48.4159 $w=2.7e-07 $l=1.65e-07 $layer=POLY_cond $X=3.295 $Y=1.74
+ $X2=3.295 $Y2=1.905
r44 10 11 48.4159 $w=2.7e-07 $l=1.65e-07 $layer=POLY_cond $X=3.295 $Y=1.74
+ $X2=3.295 $Y2=1.575
r45 7 12 681.979 $w=1.5e-07 $l=1.33e-06 $layer=POLY_cond $X=3.235 $Y=3.235
+ $X2=3.235 $Y2=1.905
r46 3 11 371.755 $w=1.5e-07 $l=7.25e-07 $layer=POLY_cond $X=3.235 $Y=0.85
+ $X2=3.235 $Y2=1.575
.ends

.subckt PM_SKY130_OSU_SC_12T_HS__DFFSR_L%CK 3 7 10 13 17 18 20 23 25 29 30 33 34
+ 37 40 41 44 48 52 54 55 57 63 67 70 71 72 73 80
c253 73 0 1.48522e-19 $X=6.03 $Y=2.11
c254 72 0 1.37846e-19 $X=6.735 $Y=2.11
c255 71 0 1.48522e-19 $X=3.8 $Y=2.11
c256 70 0 8.87231e-20 $X=5.74 $Y=2.11
c257 55 0 6.91727e-20 $X=5.49 $Y=2.11
c258 54 0 1.81195e-19 $X=5.77 $Y=2.11
c259 48 0 3.67809e-19 $X=4.135 $Y=1.4
c260 44 0 1.89329e-19 $X=4.05 $Y=2.11
c261 37 0 4.3775e-20 $X=5.855 $Y=2.285
c262 34 0 1.46493e-19 $X=5.405 $Y=1.235
c263 25 0 1.36979e-19 $X=3.685 $Y=2.285
r264 73 78 0.103375 $w=2.3e-07 $l=1.45e-07 $layer=MET1_cond $X=6.03 $Y=2.11
+ $X2=5.885 $Y2=2.11
r265 72 80 0.103375 $w=2.3e-07 $l=1.45e-07 $layer=MET1_cond $X=6.735 $Y=2.11
+ $X2=6.88 $Y2=2.11
r266 72 73 0.678832 $w=1.7e-07 $l=7.05e-07 $layer=MET1_cond $X=6.735 $Y=2.11
+ $X2=6.03 $Y2=2.11
r267 71 75 0.103375 $w=2.3e-07 $l=1.45e-07 $layer=MET1_cond $X=3.8 $Y=2.11
+ $X2=3.655 $Y2=2.11
r268 70 78 0.103375 $w=2.3e-07 $l=1.45e-07 $layer=MET1_cond $X=5.74 $Y=2.11
+ $X2=5.885 $Y2=2.11
r269 70 71 1.86799 $w=1.7e-07 $l=1.94e-06 $layer=MET1_cond $X=5.74 $Y=2.11
+ $X2=3.8 $Y2=2.11
r270 67 78 9.3 $w=1.7e-07 $l=1.7e-07 $layer=mcon $count=1 $X=5.885 $Y=2.11
+ $X2=5.885 $Y2=2.11
r271 67 69 11.7308 $w=1.82e-07 $l=1.75e-07 $layer=LI1_cond $X=5.87 $Y=2.11
+ $X2=5.87 $Y2=2.285
r272 63 75 9.3 $w=1.7e-07 $l=1.7e-07 $layer=mcon $count=1 $X=3.655 $Y=2.11
+ $X2=3.655 $Y2=2.11
r273 63 65 11.7308 $w=1.82e-07 $l=1.75e-07 $layer=LI1_cond $X=3.67 $Y=2.11
+ $X2=3.67 $Y2=2.285
r274 57 80 9.3 $w=1.7e-07 $l=1.7e-07 $layer=mcon $count=1 $X=6.88 $Y=2.11
+ $X2=6.88 $Y2=2.11
r275 57 60 11.4171 $w=1.68e-07 $l=1.75e-07 $layer=LI1_cond $X=6.88 $Y=2.11
+ $X2=6.88 $Y2=2.285
r276 54 67 1.129 $w=1.7e-07 $l=1e-07 $layer=LI1_cond $X=5.77 $Y=2.11 $X2=5.87
+ $Y2=2.11
r277 54 55 18.2674 $w=1.68e-07 $l=2.8e-07 $layer=LI1_cond $X=5.77 $Y=2.11
+ $X2=5.49 $Y2=2.11
r278 50 55 6.81649 $w=1.7e-07 $l=1.20208e-07 $layer=LI1_cond $X=5.405 $Y=2.025
+ $X2=5.49 $Y2=2.11
r279 50 52 40.7754 $w=1.68e-07 $l=6.25e-07 $layer=LI1_cond $X=5.405 $Y=2.025
+ $X2=5.405 $Y2=1.4
r280 46 48 40.7754 $w=1.68e-07 $l=6.25e-07 $layer=LI1_cond $X=4.135 $Y=2.025
+ $X2=4.135 $Y2=1.4
r281 45 63 1.129 $w=1.7e-07 $l=1e-07 $layer=LI1_cond $X=3.77 $Y=2.11 $X2=3.67
+ $Y2=2.11
r282 44 46 6.81649 $w=1.7e-07 $l=1.20208e-07 $layer=LI1_cond $X=4.05 $Y=2.11
+ $X2=4.135 $Y2=2.025
r283 44 45 18.2674 $w=1.68e-07 $l=2.8e-07 $layer=LI1_cond $X=4.05 $Y=2.11
+ $X2=3.77 $Y2=2.11
r284 43 60 145.28 $w=1.7e-07 $l=1.7e-07 $layer=licon1_POLY $count=1 $X=6.88
+ $Y=2.285 $X2=6.88 $Y2=2.285
r285 40 41 48.5235 $w=2.05e-07 $l=1.5e-07 $layer=POLY_cond $X=6.762 $Y=1.205
+ $X2=6.762 $Y2=1.355
r286 37 69 145.28 $w=1.7e-07 $l=1.7e-07 $layer=licon1_POLY $count=1 $X=5.855
+ $Y=2.285 $X2=5.855 $Y2=2.285
r287 37 39 46.2115 $w=3.3e-07 $l=1.65e-07 $layer=POLY_cond $X=5.855 $Y=2.285
+ $X2=5.855 $Y2=2.45
r288 33 52 145.28 $w=1.7e-07 $l=1.7e-07 $layer=licon1_POLY $count=1 $X=5.405
+ $Y=1.4 $X2=5.405 $Y2=1.4
r289 33 34 48.4159 $w=2.7e-07 $l=1.65e-07 $layer=POLY_cond $X=5.405 $Y=1.4
+ $X2=5.405 $Y2=1.235
r290 29 48 145.28 $w=1.7e-07 $l=1.7e-07 $layer=licon1_POLY $count=1 $X=4.135
+ $Y=1.4 $X2=4.135 $Y2=1.4
r291 29 30 48.4159 $w=2.7e-07 $l=1.65e-07 $layer=POLY_cond $X=4.135 $Y=1.4
+ $X2=4.135 $Y2=1.235
r292 25 65 145.28 $w=1.7e-07 $l=1.7e-07 $layer=licon1_POLY $count=1 $X=3.685
+ $Y=2.285 $X2=3.685 $Y2=2.285