* File: sky130_osu_sc_18T_ls__inv_10.pex.spice
* Created: Thu Oct 29 17:36:13 2020
* Program "Calibre xRC"
* Version "v2020.2_35.23"
* Nominal Temperature: 27C
* Circuit Temperature: 27C
* 
.subckt PM_SKY130_OSU_SC_18T_LS__INV_10%GND 1 2 3 4 5 6 47 51 53 60 62 69 71 78
+ 80 87 91 100 105 107
r138 105 107 1.90014 $w=3.05e-07 $l=4.08e-06 $layer=MET1_cond $X=0.34 $Y=0.152
+ $X2=4.42 $Y2=0.152
r139 89 100 7.55824 $w=3.05e-07 $l=1.90825e-07 $layer=LI1_cond $X=4.56 $Y=0.305
+ $X2=4.475 $Y2=0.152
r140 89 91 33.9251 $w=1.68e-07 $l=5.2e-07 $layer=LI1_cond $X=4.56 $Y=0.305
+ $X2=4.56 $Y2=0.825
r141 85 87 33.9251 $w=1.68e-07 $l=5.2e-07 $layer=LI1_cond $X=3.7 $Y=0.305
+ $X2=3.7 $Y2=0.825
r142 81 95 3.10218 $w=3.05e-07 $l=8.5e-08 $layer=LI1_cond $X=2.925 $Y=0.152
+ $X2=2.84 $Y2=0.152
r143 76 95 3.51065 $w=1.7e-07 $l=1.53e-07 $layer=LI1_cond $X=2.84 $Y=0.305
+ $X2=2.84 $Y2=0.152
r144 76 78 33.9251 $w=1.68e-07 $l=5.2e-07 $layer=LI1_cond $X=2.84 $Y=0.305
+ $X2=2.84 $Y2=0.825
r145 72 94 3.10218 $w=3.05e-07 $l=8.5e-08 $layer=LI1_cond $X=2.065 $Y=0.152
+ $X2=1.98 $Y2=0.152
r146 71 95 3.10218 $w=3.05e-07 $l=8.5e-08 $layer=LI1_cond $X=2.755 $Y=0.152
+ $X2=2.84 $Y2=0.152
r147 67 94 3.51065 $w=1.7e-07 $l=1.53e-07 $layer=LI1_cond $X=1.98 $Y=0.305
+ $X2=1.98 $Y2=0.152
r148 67 69 33.9251 $w=1.68e-07 $l=5.2e-07 $layer=LI1_cond $X=1.98 $Y=0.305
+ $X2=1.98 $Y2=0.825
r149 63 93 3.10218 $w=3.05e-07 $l=8.5e-08 $layer=LI1_cond $X=1.205 $Y=0.152
+ $X2=1.12 $Y2=0.152
r150 62 94 3.10218 $w=3.05e-07 $l=8.5e-08 $layer=LI1_cond $X=1.895 $Y=0.152
+ $X2=1.98 $Y2=0.152
r151 58 93 3.51065 $w=1.7e-07 $l=1.53e-07 $layer=LI1_cond $X=1.12 $Y=0.305
+ $X2=1.12 $Y2=0.152
r152 58 60 33.9251 $w=1.68e-07 $l=5.2e-07 $layer=LI1_cond $X=1.12 $Y=0.305
+ $X2=1.12 $Y2=0.825
r153 53 93 3.10218 $w=3.05e-07 $l=8.5e-08 $layer=LI1_cond $X=1.035 $Y=0.152
+ $X2=1.12 $Y2=0.152
r154 49 51 33.9251 $w=1.68e-07 $l=5.2e-07 $layer=LI1_cond $X=0.26 $Y=0.305
+ $X2=0.26 $Y2=0.825
r155 47 49 4.39984 $w=1.7e-07 $l=1.92023e-07 $layer=LI1_cond $X=0.172 $Y=0.152
+ $X2=0.26 $Y2=0.305
r156 47 54 3.15839 $w=3.05e-07 $l=1.73e-07 $layer=LI1_cond $X=0.172 $Y=0.152
+ $X2=0.345 $Y2=0.152
r157 47 100 2.07818 $w=3.03e-07 $l=5.5e-08 $layer=LI1_cond $X=4.42 $Y=0.152
+ $X2=4.475 $Y2=0.152
r158 47 96 23.9935 $w=3.03e-07 $l=6.35e-07 $layer=LI1_cond $X=4.42 $Y=0.152
+ $X2=3.785 $Y2=0.152
r159 47 107 2.65714 $w=1.7e-07 $l=5.95e-07 $layer=mcon $count=3 $X=4.42 $Y=0.17
+ $X2=4.42 $Y2=0.17
r160 47 105 2.65714 $w=1.7e-07 $l=5.95e-07 $layer=mcon $count=3 $X=0.34 $Y=0.17
+ $X2=0.34 $Y2=0.17
r161 47 85 3.51065 $w=1.7e-07 $l=1.53e-07 $layer=LI1_cond $X=3.7 $Y=0.152
+ $X2=3.7 $Y2=0.305
r162 47 80 3.10218 $w=3.05e-07 $l=8.5e-08 $layer=LI1_cond $X=3.7 $Y=0.152
+ $X2=3.615 $Y2=0.152
r163 47 96 3.10218 $w=3.05e-07 $l=8.5e-08 $layer=LI1_cond $X=3.7 $Y=0.152
+ $X2=3.785 $Y2=0.152
r164 47 80 20.9707 $w=3.03e-07 $l=5.55e-07 $layer=LI1_cond $X=3.06 $Y=0.152
+ $X2=3.615 $Y2=0.152
r165 47 81 5.10098 $w=3.03e-07 $l=1.35e-07 $layer=LI1_cond $X=3.06 $Y=0.152
+ $X2=2.925 $Y2=0.152
r166 47 71 14.1694 $w=3.03e-07 $l=3.75e-07 $layer=LI1_cond $X=2.38 $Y=0.152
+ $X2=2.755 $Y2=0.152
r167 47 72 11.9023 $w=3.03e-07 $l=3.15e-07 $layer=LI1_cond $X=2.38 $Y=0.152
+ $X2=2.065 $Y2=0.152
r168 47 62 7.36808 $w=3.03e-07 $l=1.95e-07 $layer=LI1_cond $X=1.7 $Y=0.152
+ $X2=1.895 $Y2=0.152
r169 47 63 18.7036 $w=3.03e-07 $l=4.95e-07 $layer=LI1_cond $X=1.7 $Y=0.152
+ $X2=1.205 $Y2=0.152
r170 47 53 0.566775 $w=3.03e-07 $l=1.5e-08 $layer=LI1_cond $X=1.02 $Y=0.152
+ $X2=1.035 $Y2=0.152
r171 47 54 25.5049 $w=3.03e-07 $l=6.75e-07 $layer=LI1_cond $X=1.02 $Y=0.152
+ $X2=0.345 $Y2=0.152
r172 6 91 91 $w=1.7e-07 $l=3.1225e-07 $layer=licon1_NDIFF $count=2 $X=4.42
+ $Y=0.575 $X2=4.56 $Y2=0.825
r173 5 87 91 $w=1.7e-07 $l=3.1225e-07 $layer=licon1_NDIFF $count=2 $X=3.56
+ $Y=0.575 $X2=3.7 $Y2=0.825
r174 4 78 91 $w=1.7e-07 $l=3.1225e-07 $layer=licon1_NDIFF $count=2 $X=2.7
+ $Y=0.575 $X2=2.84 $Y2=0.825
r175 3 69 91 $w=1.7e-07 $l=3.1225e-07 $layer=licon1_NDIFF $count=2 $X=1.84
+ $Y=0.575 $X2=1.98 $Y2=0.825
r176 2 60 91 $w=1.7e-07 $l=3.1225e-07 $layer=licon1_NDIFF $count=2 $X=0.98
+ $Y=0.575 $X2=1.12 $Y2=0.825
r177 1 51 91 $w=1.7e-07 $l=3.06186e-07 $layer=licon1_NDIFF $count=2 $X=0.135
+ $Y=0.575 $X2=0.26 $Y2=0.825
.ends

.subckt PM_SKY130_OSU_SC_18T_LS__INV_10%VDD 1 2 3 4 5 6 40 44 48 54 58 64 68 74
+ 78 84 90 100 102 107
r96 107 111 2.65714 $w=1.7e-07 $l=5.95e-07 $layer=mcon $count=3 $X=4.42 $Y=6.49
+ $X2=4.42 $Y2=6.49
r97 102 107 1.90014 $w=3.05e-07 $l=4.08e-06 $layer=MET1_cond $X=0.34 $Y=6.507
+ $X2=4.42 $Y2=6.507
r98 102 105 2.65714 $w=1.7e-07 $l=5.95e-07 $layer=mcon $count=3 $X=0.34 $Y=6.49
+ $X2=0.34 $Y2=6.49
r99 100 111 2.07818 $w=3.03e-07 $l=5.5e-08 $layer=LI1_cond $X=4.475 $Y=6.507
+ $X2=4.42 $Y2=6.507
r100 97 111 23.9935 $w=3.03e-07 $l=6.35e-07 $layer=LI1_cond $X=3.785 $Y=6.507
+ $X2=4.42 $Y2=6.507
r101 97 99 3.10218 $w=3.05e-07 $l=8.5e-08 $layer=LI1_cond $X=3.785 $Y=6.507
+ $X2=3.7 $Y2=6.507
r102 90 93 155.273 $w=1.68e-07 $l=2.38e-06 $layer=LI1_cond $X=4.56 $Y=3.455
+ $X2=4.56 $Y2=5.835
r103 88 100 7.55824 $w=3.05e-07 $l=1.898e-07 $layer=LI1_cond $X=4.56 $Y=6.355
+ $X2=4.475 $Y2=6.507
r104 88 93 33.9251 $w=1.68e-07 $l=5.2e-07 $layer=LI1_cond $X=4.56 $Y=6.355
+ $X2=4.56 $Y2=5.835
r105 84 87 155.273 $w=1.68e-07 $l=2.38e-06 $layer=LI1_cond $X=3.7 $Y=3.455
+ $X2=3.7 $Y2=5.835
r106 82 99 3.51065 $w=1.7e-07 $l=1.52e-07 $layer=LI1_cond $X=3.7 $Y=6.355
+ $X2=3.7 $Y2=6.507
r107 82 87 33.9251 $w=1.68e-07 $l=5.2e-07 $layer=LI1_cond $X=3.7 $Y=6.355
+ $X2=3.7 $Y2=5.835
r108 79 96 3.10218 $w=3.05e-07 $l=8.5e-08 $layer=LI1_cond $X=2.925 $Y=6.507
+ $X2=2.84 $Y2=6.507
r109 79 81 5.10098 $w=3.03e-07 $l=1.35e-07 $layer=LI1_cond $X=2.925 $Y=6.507
+ $X2=3.06 $Y2=6.507
r110 78 99 3.10218 $w=3.05e-07 $l=8.5e-08 $layer=LI1_cond $X=3.615 $Y=6.507
+ $X2=3.7 $Y2=6.507
r111 78 81 20.9707 $w=3.03e-07 $l=5.55e-07 $layer=LI1_cond $X=3.615 $Y=6.507
+ $X2=3.06 $Y2=6.507
r112 74 77 155.273 $w=1.68e-07 $l=2.38e-06 $layer=LI1_cond $X=2.84 $Y=3.455
+ $X2=2.84 $Y2=5.835
r113 72 96 3.51065 $w=1.7e-07 $l=1.52e-07 $layer=LI1_cond $X=2.84 $Y=6.355
+ $X2=2.84 $Y2=6.507
r114 72 77 33.9251 $w=1.68e-07 $l=5.2e-07 $layer=LI1_cond $X=2.84 $Y=6.355
+ $X2=2.84 $Y2=5.835
r115 69 95 3.10218 $w=3.05e-07 $l=8.5e-08 $layer=LI1_cond $X=2.065 $Y=6.507
+ $X2=1.98 $Y2=6.507
r116 69 71 11.9023 $w=3.03e-07 $l=3.15e-07 $layer=LI1_cond $X=2.065 $Y=6.507
+ $X2=2.38 $Y2=6.507
r117 68 96 3.10218 $w=3.05e-07 $l=8.5e-08 $layer=LI1_cond $X=2.755 $Y=6.507
+ $X2=2.84 $Y2=6.507
r118 68 71 14.1694 $w=3.03e-07 $l=3.75e-07 $layer=LI1_cond $X=2.755 $Y=6.507
+ $X2=2.38 $Y2=6.507
r119 64 67 155.273 $w=1.68e-07 $l=2.38e-06 $layer=LI1_cond $X=1.98 $Y=3.455
+ $X2=1.98 $Y2=5.835
r120 62 95 3.51065 $w=1.7e-07 $l=1.52e-07 $layer=LI1_cond $X=1.98 $Y=6.355
+ $X2=1.98 $Y2=6.507
r121 62 67 33.9251 $w=1.68e-07 $l=5.2e-07 $layer=LI1_cond $X=1.98 $Y=6.355
+ $X2=1.98 $Y2=5.835
r122 59 94 3.10218 $w=3.05e-07 $l=8.5e-08 $layer=LI1_cond $X=1.205 $Y=6.507
+ $X2=1.12 $Y2=6.507
r123 59 61 18.7036 $w=3.03e-07 $l=4.95e-07 $layer=LI1_cond $X=1.205 $Y=6.507
+ $X2=1.7 $Y2=6.507
r124 58 95 3.10218 $w=3.05e-07 $l=8.5e-08 $layer=LI1_cond $X=1.895 $Y=6.507
+ $X2=1.98 $Y2=6.507
r125 58 61 7.36808 $w=3.03e-07 $l=1.95e-07 $layer=LI1_cond $X=1.895 $Y=6.507
+ $X2=1.7 $Y2=6.507
r126 54 57 155.273 $w=1.68e-07 $l=2.38e-06 $layer=LI1_cond $X=1.12 $Y=3.455
+ $X2=1.12 $Y2=5.835
r127 52 94 3.51065 $w=1.7e-07 $l=1.52e-07 $layer=LI1_cond $X=1.12 $Y=6.355
+ $X2=1.12 $Y2=6.507
r128 52 57 33.9251 $w=1.68e-07 $l=5.2e-07 $layer=LI1_cond $X=1.12 $Y=6.355
+ $X2=1.12 $Y2=5.835
r129 49 105 3.16604 $w=3.05e-07 $l=1.73e-07 $layer=LI1_cond $X=0.345 $Y=6.507
+ $X2=0.172 $Y2=6.507
r130 49 51 25.5049 $w=3.03e-07 $l=6.75e-07 $layer=LI1_cond $X=0.345 $Y=6.507
+ $X2=1.02 $Y2=6.507
r131 48 94 3.10218 $w=3.05e-07 $l=8.5e-08 $layer=LI1_cond $X=1.035 $Y=6.507
+ $X2=1.12 $Y2=6.507
r132 48 51 0.566775 $w=3.03e-07 $l=1.5e-08 $layer=LI1_cond $X=1.035 $Y=6.507
+ $X2=1.02 $Y2=6.507
r133 44 47 110.909 $w=1.68e-07 $l=1.7e-06 $layer=LI1_cond $X=0.26 $Y=4.135
+ $X2=0.26 $Y2=5.835
r134 42 105 4.3922 $w=1.7e-07 $l=1.90997e-07 $layer=LI1_cond $X=0.26 $Y=6.355
+ $X2=0.172 $Y2=6.507
r135 42 47 33.9251 $w=1.68e-07 $l=5.2e-07 $layer=LI1_cond $X=0.26 $Y=6.355
+ $X2=0.26 $Y2=5.835
r136 40 105 182 $w=1.7e-07 $l=2.43824e-07 $layer=licon1_NTAP_notbjt $count=1
+ $X=0.135 $Y=6.355 $X2=0.34 $Y2=6.44
r137 40 111 182 $w=1.7e-07 $l=2.43824e-07 $layer=licon1_NTAP_notbjt $count=1
+ $X=4.215 $Y=6.355 $X2=4.42 $Y2=6.44
r138 40 99 182 $w=1.7e-07 $l=2.43824e-07 $layer=licon1_NTAP_notbjt $count=1
+ $X=3.535 $Y=6.355 $X2=3.74 $Y2=6.44
r139 40 81 182 $w=1.7e-07 $l=2.43824e-07 $layer=licon1_NTAP_notbjt $count=1
+ $X=2.855 $Y=6.355 $X2=3.06 $Y2=6.44
r140 40 71 182 $w=1.7e-07 $l=2.43824e-07 $layer=licon1_NTAP_notbjt $count=1
+ $X=2.175 $Y=6.355 $X2=2.38 $Y2=6.44
r141 40 61 182 $w=1.7e-07 $l=2.43824e-07 $layer=licon1_NTAP_notbjt $count=1
+ $X=1.495 $Y=6.355 $X2=1.7 $Y2=6.44
r142 40 51 182 $w=1.7e-07 $l=2.43824e-07 $layer=licon1_NTAP_notbjt $count=1
+ $X=0.815 $Y=6.355 $X2=1.02 $Y2=6.44
r143 6 93 150 $w=1.7e-07 $l=2.81913e-06 $layer=licon1_PDIFF $count=4 $X=4.42
+ $Y=3.085 $X2=4.56 $Y2=5.835
r144 6 90 150 $w=1.7e-07 $l=4.34396e-07 $layer=licon1_PDIFF $count=4 $X=4.42
+ $Y=3.085 $X2=4.56 $Y2=3.455
r145 5 87 150 $w=1.7e-07 $l=2.81913e-06 $layer=licon1_PDIFF $count=4 $X=3.56
+ $Y=3.085 $X2=3.7 $Y2=5.835
r146 5 84 150 $w=1.7e-07 $l=4.34396e-07 $layer=licon1_PDIFF $count=4 $X=3.56
+ $Y=3.085 $X2=3.7 $Y2=3.455
r147 4 77 150 $w=1.7e-07 $l=2.81913e-06 $layer=licon1_PDIFF $count=4 $X=2.7
+ $Y=3.085 $X2=2.84 $Y2=5.835
r148 4 74 150 $w=1.7e-07 $l=4.34396e-07 $layer=licon1_PDIFF $count=4 $X=2.7
+ $Y=3.085 $X2=2.84 $Y2=3.455
r149 3 67 150 $w=1.7e-07 $l=2.81913e-06 $layer=licon1_PDIFF $count=4 $X=1.84
+ $Y=3.085 $X2=1.98 $Y2=5.835
r150 3 64 150 $w=1.7e-07 $l=4.34396e-07 $layer=licon1_PDIFF $count=4 $X=1.84
+ $Y=3.085 $X2=1.98 $Y2=3.455
r151 2 57 150 $w=1.7e-07 $l=2.81913e-06 $layer=licon1_PDIFF $count=4 $X=0.98
+ $Y=3.085 $X2=1.12 $Y2=5.835
r152 2 54 150 $w=1.7e-07 $l=4.34396e-07 $layer=licon1_PDIFF $count=4 $X=0.98
+ $Y=3.085 $X2=1.12 $Y2=3.455
r153 1 47 200 $w=1.7e-07 $l=2.81181e-06 $layer=licon1_PDIFF $count=3 $X=0.135
+ $Y=3.085 $X2=0.26 $Y2=5.835
r154 1 44 200 $w=1.7e-07 $l=1.11074e-06 $layer=licon1_PDIFF $count=3 $X=0.135
+ $Y=3.085 $X2=0.26 $Y2=4.135
.ends

.subckt PM_SKY130_OSU_SC_18T_LS__INV_10%A 1 3 7 8 10 11 13 15 17 18 20 21 23 25
+ 27 28 30 31 33 35 37 38 40 41 43 45 47 49 50 52 53 55 57 59 60 62 63 65 67 69
+ 70 72 73 75 77 79 80 82 83 85 87 89 90 92 93 95 97 99 100 102 103 104 105 106
+ 107 108 109 110 111 112 113 114 115 116 117 118 119 120 121 123 124 128 131
+ 133
c289 90 0 1.33323e-19 $X=3.915 $Y=2.96
c290 87 0 1.33323e-19 $X=3.915 $Y=1.7
c291 80 0 1.33323e-19 $X=3.485 $Y=2.96
c292 77 0 1.33323e-19 $X=3.485 $Y=1.7
c293 70 0 1.33323e-19 $X=3.055 $Y=2.96
c294 67 0 1.33323e-19 $X=3.055 $Y=1.7
c295 60 0 1.33323e-19 $X=2.625 $Y=2.96
c296 57 0 1.33323e-19 $X=2.625 $Y=1.7
c297 50 0 1.33323e-19 $X=2.195 $Y=2.96
c298 45 0 1.33323e-19 $X=2.195 $Y=1.7
c299 38 0 1.33323e-19 $X=1.765 $Y=2.96
c300 35 0 1.33323e-19 $X=1.765 $Y=1.7
c301 28 0 1.33323e-19 $X=1.335 $Y=2.96
c302 25 0 1.33323e-19 $X=1.335 $Y=1.7
c303 18 0 1.33323e-19 $X=0.905 $Y=2.96
c304 15 0 1.33323e-19 $X=0.905 $Y=1.7
r305 128 131 9.3 $w=1.7e-07 $l=1.7e-07 $layer=mcon $count=1 $X=0.32 $Y=3.33
+ $X2=0.32 $Y2=3.33
r306 126 131 61.3262 $w=1.68e-07 $l=9.4e-07 $layer=LI1_cond $X=0.32 $Y=2.39
+ $X2=0.32 $Y2=3.33
r307 124 134 48.4159 $w=2.7e-07 $l=1.65e-07 $layer=POLY_cond $X=0.535 $Y=2.305
+ $X2=0.535 $Y2=2.47
r308 124 133 48.4159 $w=2.7e-07 $l=1.65e-07 $layer=POLY_cond $X=0.535 $Y=2.305
+ $X2=0.535 $Y2=2.14
r309 123 124 145.28 $w=1.7e-07 $l=1.7e-07 $layer=licon1_POLY $count=1 $X=0.535
+ $Y=2.305 $X2=0.535 $Y2=2.305
r310 121 126 6.81649 $w=1.7e-07 $l=1.20208e-07 $layer=LI1_cond $X=0.405 $Y=2.305
+ $X2=0.32 $Y2=2.39
r311 121 123 8.48128 $w=1.68e-07 $l=1.3e-07 $layer=LI1_cond $X=0.405 $Y=2.305
+ $X2=0.535 $Y2=2.305
r312 100 102 522.167 $w=1.5e-07 $l=1.625e-06 $layer=POLY_cond $X=4.345 $Y=2.96
+ $X2=4.345 $Y2=4.585
r313 97 99 200.833 $w=1.5e-07 $l=6.25e-07 $layer=POLY_cond $X=4.345 $Y=1.7
+ $X2=4.345 $Y2=1.075
r314 96 120 20.4101 $w=1.5e-07 $l=7.5e-08 $layer=POLY_cond $X=3.99 $Y=2.885
+ $X2=3.915 $Y2=2.885
r315 95 100 26.9307 $w=1.5e-07 $l=1.06066e-07 $layer=POLY_cond $X=4.27 $Y=2.885
+ $X2=4.345 $Y2=2.96
r316 95 96 143.574 $w=1.5e-07 $l=2.8e-07 $layer=POLY_cond $X=4.27 $Y=2.885
+ $X2=3.99 $Y2=2.885
r317 94 119 20.4101 $w=1.5e-07 $l=7.5e-08 $layer=POLY_cond $X=3.99 $Y=1.775
+ $X2=3.915 $Y2=1.775
r318 93 97 26.9307 $w=1.5e-07 $l=1.06066e-07 $layer=POLY_cond $X=4.27 $Y=1.775
+ $X2=4.345 $Y2=1.7
r319 93 94 143.574 $w=1.5e-07 $l=2.8e-07 $layer=POLY_cond $X=4.27 $Y=1.775
+ $X2=3.99 $Y2=1.775
r320 90 120 5.30422 $w=1.5e-07 $l=7.5e-08 $layer=POLY_cond $X=3.915 $Y=2.96
+ $X2=3.915 $Y2=2.885
r321 90 92 522.167 $w=1.5e-07 $l=1.625e-06 $layer=POLY_cond $X=3.915 $Y=2.96
+ $X2=3.915 $Y2=4.585
r322 87 119 5.30422 $w=1.5e-07 $l=7.5e-08 $layer=POLY_cond $X=3.915 $Y=1.7
+ $X2=3.915 $Y2=1.775
r323 87 89 200.833 $w=1.5e-07 $l=6.25e-07 $layer=POLY_cond $X=3.915 $Y=1.7
+ $X2=3.915 $Y2=1.075
r324 86 118 20.4101 $w=1.5e-07 $l=7.5e-08 $layer=POLY_cond $X=3.56 $Y=2.885
+ $X2=3.485 $Y2=2.885
r325 85 120 20.4101 $w=1.5e-07 $l=7.5e-08 $layer=POLY_cond $X=3.84 $Y=2.885
+ $X2=3.915 $Y2=2.885
r326 85 86 143.574 $w=1.5e-07 $l=2.8e-07 $layer=POLY_cond $X=3.84 $Y=2.885
+ $X2=3.56 $Y2=2.885
r327 84 117 20.4101 $w=1.5e-07 $l=7.5e-08 $layer=POLY_cond $X=3.56 $Y=1.775
+ $X2=3.485 $Y2=1.775
r328 83 119 20.4101 $w=1.5e-07 $l=7.5e-08 $layer=POLY_cond $X=3.84 $Y=1.775
+ $X2=3.915 $Y2=1.775
r329 83 84 143.574 $w=1.5e-07 $l=2.8e-07 $layer=POLY_cond $X=3.84 $Y=1.775
+ $X2=3.56 $Y2=1.775
r330 80 118 5.30422 $w=1.5e-07 $l=7.5e-08 $layer=POLY_cond $X=3.485 $Y=2.96
+ $X2=3.485 $Y2=2.885
r331 80 82 522.167 $w=1.5e-07 $l=1.625e-06 $layer=POLY_cond $X=3.485 $Y=2.96
+ $X2=3.485 $Y2=4.585
r332 77 117 5.30422 $w=1.5e-07 $l=7.5e-08 $layer=POLY_cond $X=3.485 $Y=1.7
+ $X2=3.485 $Y2=1.775
r333 77 79 200.833 $w=1.5e-07 $l=6.25e-07 $layer=POLY_cond $X=3.485 $Y=1.7
+ $X2=3.485 $Y2=1.075
r334 76 116 20.4101 $w=1.5e-07 $l=7.5e-08 $layer=POLY_cond $X=3.13 $Y=2.885
+ $X2=3.055 $Y2=2.885
r335 75 118 20.4101 $w=1.5e-07 $l=7.5e-08 $layer=POLY_cond $X=3.41 $Y=2.885
+ $X2=3.485 $Y2=2.885
r336 75 76 143.574 $w=1.5e-07 $l=2.8e-07 $layer=POLY_cond $X=3.41 $Y=2.885
+ $X2=3.13 $Y2=2.885
r337 74 115 20.4101 $w=1.5e-07 $l=7.5e-08 $layer=POLY_cond $X=3.13 $Y=1.775
+ $X2=3.055 $Y2=1.775
r338 73 117 20.4101 $w=1.5e-07 $l=7.5e-08 $layer=POLY_cond $X=3.41 $Y=1.775
+ $X2=3.485 $Y2=1.775
r339 73 74 143.574 $w=1.5e-07 $l=2.8e-07 $layer=POLY_cond $X=3.41 $Y=1.775
+ $X2=3.13 $Y2=1.775
r340 70 116 5.30422 $w=1.5e-07 $l=7.5e-08 $layer=POLY_cond $X=3.055 $Y=2.96
+ $X2=3.055 $Y2=2.885
r341 70 72 522.167 $w=1.5e-07 $l=1.625e-06 $layer=POLY_cond $X=3.055 $Y=2.96
+ $X2=3.055 $Y2=4.585
r342 67 115 5.30422 $w=1.5e-07 $l=7.5e-08 $layer=POLY_cond $X=3.055 $Y=1.7
+ $X2=3.055 $Y2=1.775
r343 67 69 200.833 $w=1.5e-07 $l=6.25e-07 $layer=POLY_cond $X=3.055 $Y=1.7
+ $X2=3.055 $Y2=1.075
r344 66 114 20.4101 $w=1.5e-07 $l=7.5e-08 $layer=POLY_cond $X=2.7 $Y=2.885
+ $X2=2.625 $Y2=2.885
r345 65 116 20.4101 $w=1.5e-07 $l=7.5e-08 $layer=POLY_cond $X=2.98 $Y=2.885
+ $X2=3.055 $Y2=2.885
r346 65 66 143.574 $w=1.5e-07 $l=2.8e-07 $layer=POLY_cond $X=2.98 $Y=2.885
+ $X2=2.7 $Y2=2.885
r347 64 113 20.4101 $w=1.5e-07 $l=7.5e-08 $layer=POLY_cond $X=2.7 $Y=1.775
+ $X2=2.625 $Y2=1.775
r348 63 115 20.4101 $w=1.5e-07 $l=7.5e-08 $layer=POLY_cond $X=2.98 $Y=1.775
+ $X2=3.055 $Y2=1.775
r349 63 64 143.574 $w=1.5e-07 $l=2.8e-07 $layer=POLY_cond $X=2.98 $Y=1.775
+ $X2=2.7 $Y2=1.775
r350 60 114 5.30422 $w=1.5e-07 $l=7.5e-08 $layer=POLY_cond $X=2.625 $Y=2.96
+ $X2=2.625 $Y2=2.885
r351 60 62 522.167 $w=1.5e-07 $l=1.625e-06 $layer=POLY_cond $X=2.625 $Y=2.96
+ $X2=2.625 $Y2=4.585
r352 57 113 5.30422 $w=1.5e-07 $l=7.5e-08 $layer=POLY_cond $X=2.625 $Y=1.7
+ $X2=2.625 $Y2=1.775
r353 57 59 200.833 $w=1.5e-07 $l=6.25e-07 $layer=POLY_cond $X=2.625 $Y=1.7
+ $X2=2.625 $Y2=1.075
r354 56 112 24.1 $w=1.5e-07 $l=7.5e-08 $layer=POLY_cond $X=2.27 $Y=2.885
+ $X2=2.195 $Y2=2.885
r355 55 114 20.4101 $w=1.5e-07 $l=7.5e-08 $layer=POLY_cond $X=2.55 $Y=2.885
+ $X2=2.625 $Y2=2.885
r356 55 56 143.574 $w=1.5e-07 $l=2.8e-07 $layer=POLY_cond $X=2.55 $Y=2.885
+ $X2=2.27 $Y2=2.885
r357 54 111 24.1 $w=1.5e-07 $l=7.5e-08 $layer=POLY_cond $X=2.27 $Y=1.775
+ $X2=2.195 $Y2=1.775
r358 53 113 20.4101 $w=1.5e-07 $l=7.5e-08 $layer=POLY_cond $X=2.55 $Y=1.775
+ $X2=2.625 $Y2=1.775
r359 53 54 143.574 $w=1.5e-07 $l=2.8e-07 $layer=POLY_cond $X=2.55 $Y=1.775
+ $X2=2.27 $Y2=1.775
r360 50 112 24.1 $w=1.5e-07 $l=7.5e-08 $layer=POLY_cond $X=2.195 $Y=2.96
+ $X2=2.195 $Y2=2.885
r361 50 52 522.167 $w=1.5e-07 $l=1.625e-06 $layer=POLY_cond $X=2.195 $Y=2.96
+ $X2=2.195 $Y2=4.585
r362 49 112 24.1 $w=1.5e-07 $l=7.5e-08 $layer=POLY_cond $X=2.195 $Y=2.81
+ $X2=2.195 $Y2=2.885
r363 48 111 24.1 $w=1.5e-07 $l=7.5e-08 $layer=POLY_cond $X=2.195 $Y=1.85
+ $X2=2.195 $Y2=1.775
r364 48 49 492.255 $w=1.5e-07 $l=9.6e-07 $layer=POLY_cond $X=2.195 $Y=1.85
+ $X2=2.195 $Y2=2.81
r365 45 111 24.1 $w=1.5e-07 $l=7.5e-08 $layer=POLY_cond $X=2.195 $Y=1.7
+ $X2=2.195 $Y2=1.775
r366 45 47 200.833 $w=1.5e-07 $l=6.25e-07 $layer=POLY_cond $X=2.195 $Y=1.7
+ $X2=2.195 $Y2=1.075
r367 44 110 20.4101 $w=1.5e-07 $l=7.5e-08 $layer=POLY_cond $X=1.84 $Y=2.885
+ $X2=1.765 $Y2=2.885
r368 43 112 24.1 $w=1.5e-07 $l=7.5e-08 $layer=POLY_cond $X=2.12 $Y=2.885
+ $X2=2.195 $Y2=2.885
r369 43 44 143.574 $w=1.5e-07 $l=2.8e-07 $layer=POLY_cond $X=2.12 $Y=2.885
+ $X2=1.84 $Y2=2.885
r370 42 109 20.4101 $w=1.5e-07 $l=7.5e-08 $layer=POLY_cond $X=1.84 $Y=1.775
+ $X2=1.765 $Y2=1.775
r371 41 111 24.1 $w=1.5e-07 $l=7.5e-08 $layer=POLY_cond $X=2.12 $Y=1.775
+ $X2=2.195 $Y2=1.775
r372 41 42 143.574 $w=1.5e-07 $l=2.8e-07 $layer=POLY_cond $X=2.12 $Y=1.775
+ $X2=1.84 $Y2=1.775
r373 38 110 5.30422 $w=1.5e-07 $l=7.5e-08 $layer=POLY_cond $X=1.765 $Y=2.96
+ $X2=1.765 $Y2=2.885
r374 38 40 522.167 $w=1.5e-07 $l=1.625e-06 $layer=POLY_cond $X=1.765 $Y=2.96
+ $X2=1.765 $Y2=4.585
r375 35 109 5.30422 $w=1.5e-07 $l=7.5e-08 $layer=POLY_cond $X=1.765 $Y=1.7
+ $X2=1.765 $Y2=1.775
r376 35 37 200.833 $w=1.5e-07 $l=6.25e-07 $layer=POLY_cond $X=1.765 $Y=1.7
+ $X2=1.765 $Y2=1.075
r377 34 108 20.4101 $w=1.5e-07 $l=7.5e-08 $layer=POLY_cond $X=1.41 $Y=2.885
+ $X2=1.335 $Y2=2.885
r378 33 110 20.4101 $w=1.5e-07 $l=7.5e-08 $layer=POLY_cond $X=1.69 $Y=2.885
+ $X2=1.765 $Y2=2.885
r379 33 34 143.574 $w=1.5e-07 $l=2.8e-07 $layer=POLY_cond $X=1.69 $Y=2.885
+ $X2=1.41 $Y2=2.885
r380 32 107 20.4101 $w=1.5e-07 $l=7.5e-08 $layer=POLY_cond $X=1.41 $Y=1.775
+ $X2=1.335 $Y2=1.775
r381 31 109 20.4101 $w=1.5e-07 $l=7.5e-08 $layer=POLY_cond $X=1.69 $Y=1.775
+ $X2=1.765 $Y2=1.775
r382 31 32 143.574 $w=1.5e-07 $l=2.8e-07 $layer=POLY_cond $X=1.69 $Y=1.775
+ $X2=1.41 $Y2=1.775
r383 28 108 5.30422 $w=1.5e-07 $l=7.5e-08 $layer=POLY_cond $X=1.335 $Y=2.96
+ $X2=1.335 $Y2=2.885
r384 28 30 522.167 $w=1.5e-07 $l=1.625e-06 $layer=POLY_cond $X=1.335 $Y=2.96
+ $X2=1.335 $Y2=4.585
r385 25 107 5.30422 $w=1.5e-07 $l=7.5e-08 $layer=POLY_cond $X=1.335 $Y=1.7
+ $X2=1.335 $Y2=1.775
r386 25 27 200.833 $w=1.5e-07 $l=6.25e-07 $layer=POLY_cond $X=1.335 $Y=1.7
+ $X2=1.335 $Y2=1.075
r387 24 106 20.4101 $w=1.5e-07 $l=7.5e-08 $layer=POLY_cond $X=0.98 $Y=2.885
+ $X2=0.905 $Y2=2.885
r388 23 108 20.4101 $w=1.5e-07 $l=7.5e-08 $layer=POLY_cond $X=1.26 $Y=2.885
+ $X2=1.335 $Y2=2.885
r389 23 24 143.574 $w=1.5e-07 $l=2.8e-07 $layer=POLY_cond $X=1.26 $Y=2.885
+ $X2=0.98 $Y2=2.885
r390 22 105 20.4101 $w=1.5e-07 $l=7.5e-08 $layer=POLY_cond $X=0.98 $Y=1.775
+ $X2=0.905 $Y2=1.775
r391 21 107 20.4101 $w=1.5e-07 $l=7.5e-08 $layer=POLY_cond $X=1.26 $Y=1.775
+ $X2=1.335 $Y2=1.775
r392 21 22 143.574 $w=1.5e-07 $l=2.8e-07 $layer=POLY_cond $X=1.26 $Y=1.775
+ $X2=0.98 $Y2=1.775
r393 18 106 5.30422 $w=1.5e-07 $l=7.5e-08 $layer=POLY_cond $X=0.905 $Y=2.96
+ $X2=0.905 $Y2=2.885
r394 18 20 522.167 $w=1.5e-07 $l=1.625e-06 $layer=POLY_cond $X=0.905 $Y=2.96
+ $X2=0.905 $Y2=4.585
r395 15 105 5.30422 $w=1.5e-07 $l=7.5e-08 $layer=POLY_cond $X=0.905 $Y=1.7
+ $X2=0.905 $Y2=1.775
r396 15 17 200.833 $w=1.5e-07 $l=6.25e-07 $layer=POLY_cond $X=0.905 $Y=1.7
+ $X2=0.905 $Y2=1.075
r397 14 104 5.30422 $w=1.5e-07 $l=7.5e-08 $layer=POLY_cond $X=0.55 $Y=2.885
+ $X2=0.475 $Y2=2.885
r398 13 106 20.4101 $w=1.5e-07 $l=7.5e-08 $layer=POLY_cond $X=0.83 $Y=2.885
+ $X2=0.905 $Y2=2.885
r399 13 14 143.574 $w=1.5e-07 $l=2.8e-07 $layer=POLY_cond $X=0.83 $Y=2.885
+ $X2=0.55 $Y2=2.885
r400 12 103 5.30422 $w=1.5e-07 $l=7.5e-08 $layer=POLY_cond $X=0.55 $Y=1.775
+ $X2=0.475 $Y2=1.775
r401 11 105 20.4101 $w=1.5e-07 $l=7.5e-08 $layer=POLY_cond $X=0.83 $Y=1.775
+ $X2=0.905 $Y2=1.775
r402 11 12 143.574 $w=1.5e-07 $l=2.8e-07 $layer=POLY_cond $X=0.83 $Y=1.775
+ $X2=0.55 $Y2=1.775
r403 8 104 20.4101 $w=1.5e-07 $l=7.5e-08 $layer=POLY_cond $X=0.475 $Y=2.96
+ $X2=0.475 $Y2=2.885
r404 8 10 522.167 $w=1.5e-07 $l=1.625e-06 $layer=POLY_cond $X=0.475 $Y=2.96
+ $X2=0.475 $Y2=4.585
r405 7 104 20.4101 $w=1.5e-07 $l=7.5e-08 $layer=POLY_cond $X=0.475 $Y=2.81
+ $X2=0.475 $Y2=2.885
r406 7 134 174.34 $w=1.5e-07 $l=3.4e-07 $layer=POLY_cond $X=0.475 $Y=2.81
+ $X2=0.475 $Y2=2.47
r407 4 103 20.4101 $w=1.5e-07 $l=7.5e-08 $layer=POLY_cond $X=0.475 $Y=1.85
+ $X2=0.475 $Y2=1.775
r408 4 133 148.702 $w=1.5e-07 $l=2.9e-07 $layer=POLY_cond $X=0.475 $Y=1.85
+ $X2=0.475 $Y2=2.14
r409 1 103 20.4101 $w=1.5e-07 $l=7.5e-08 $layer=POLY_cond $X=0.475 $Y=1.7
+ $X2=0.475 $Y2=1.775
r410 1 3 200.833 $w=1.5e-07 $l=6.25e-07 $layer=POLY_cond $X=0.475 $Y=1.7
+ $X2=0.475 $Y2=1.075
.ends

.subckt PM_SKY130_OSU_SC_18T_LS__INV_10%Y 1 2 3 4 5 6 7 8 9 10 31 32 34 36 38 41
+ 42 43 44 45 47 48 49 50 51 53 54 55 56 57 58 59 65 71 77 83 89 91 103 115 127
+ 139
c213 59 0 1.33323e-19 $X=4.13 $Y=2.845
c214 58 0 1.33323e-19 $X=4.13 $Y=1.595
c215 57 0 2.66647e-19 $X=3.415 $Y=2.96
c216 55 0 2.66647e-19 $X=3.415 $Y=1.48
c217 51 0 2.66647e-19 $X=2.555 $Y=2.96
c218 49 0 2.66647e-19 $X=2.555 $Y=1.48
c219 45 0 2.66647e-19 $X=1.695 $Y=2.96
c220 43 0 2.66647e-19 $X=1.695 $Y=1.48
c221 32 0 1.33323e-19 $X=0.69 $Y=2.845
c222 31 0 1.33323e-19 $X=0.69 $Y=1.595
r223 146 148 155.273 $w=1.68e-07 $l=2.38e-06 $layer=LI1_cond $X=4.13 $Y=3.455
+ $X2=4.13 $Y2=5.835
r224 134 136 155.273 $w=1.68e-07 $l=2.38e-06 $layer=LI1_cond $X=3.27 $Y=3.455
+ $X2=3.27 $Y2=5.835
r225 122 124 155.273 $w=1.68e-07 $l=2.38e-06 $layer=LI1_cond $X=2.41 $Y=3.455
+ $X2=2.41 $Y2=5.835
r226 110 112 155.273 $w=1.68e-07 $l=2.38e-06 $layer=LI1_cond $X=1.55 $Y=3.455
+ $X2=1.55 $Y2=5.835
r227 98 100 155.273 $w=1.68e-07 $l=2.38e-06 $layer=LI1_cond $X=0.69 $Y=3.455
+ $X2=0.69 $Y2=5.835
r228 89 146 32.2941 $w=1.68e-07 $l=4.95e-07 $layer=LI1_cond $X=4.13 $Y=2.96
+ $X2=4.13 $Y2=3.455
r229 88 89 9.3 $w=1.7e-07 $l=1.7e-07 $layer=mcon $count=1 $X=4.13 $Y=2.96
+ $X2=4.13 $Y2=2.96
r230 86 139 42.7326 $w=1.68e-07 $l=6.55e-07 $layer=LI1_cond $X=4.13 $Y=1.48
+ $X2=4.13 $Y2=0.825
r231 85 86 9.3 $w=1.7e-07 $l=1.7e-07 $layer=mcon $count=1 $X=4.13 $Y=1.48
+ $X2=4.13 $Y2=1.48
r232 83 134 32.2941 $w=1.68e-07 $l=4.95e-07 $layer=LI1_cond $X=3.27 $Y=2.96
+ $X2=3.27 $Y2=3.455
r233 82 83 9.3 $w=1.7e-07 $l=1.7e-07 $layer=mcon $count=1 $X=3.27 $Y=2.96
+ $X2=3.27 $Y2=2.96
r234 80 127 42.7326 $w=1.68e-07 $l=6.55e-07 $layer=LI1_cond $X=3.27 $Y=1.48
+ $X2=3.27 $Y2=0.825
r235 79 80 9.3 $w=1.7e-07 $l=1.7e-07 $layer=mcon $count=1 $X=3.27 $Y=1.48
+ $X2=3.27 $Y2=1.48
r236 77 122 32.2941 $w=1.68e-07 $l=4.95e-07 $layer=LI1_cond $X=2.41 $Y=2.96
+ $X2=2.41 $Y2=3.455
r237 76 77 9.3 $w=1.7e-07 $l=1.7e-07 $layer=mcon $count=1 $X=2.41 $Y=2.96
+ $X2=2.41 $Y2=2.96
r238 74 115 42.7326 $w=1.68e-07 $l=6.55e-07 $layer=LI1_cond $X=2.41 $Y=1.48
+ $X2=2.41 $Y2=0.825
r239 73 74 9.3 $w=1.7e-07 $l=1.7e-07 $layer=mcon $count=1 $X=2.41 $Y=1.48
+ $X2=2.41 $Y2=1.48
r240 71 110 32.2941 $w=1.68e-07 $l=4.95e-07 $layer=LI1_cond $X=1.55 $Y=2.96
+ $X2=1.55 $Y2=3.455
r241 70 71 9.3 $w=1.7e-07 $l=1.7e-07 $layer=mcon $count=1 $X=1.55 $Y=2.96
+ $X2=1.55 $Y2=2.96
r242 68 103 42.7326 $w=1.68e-07 $l=6.55e-07 $layer=LI1_cond $X=1.55 $Y=1.48
+ $X2=1.55 $Y2=0.825
r243 67 68 9.3 $w=1.7e-07 $l=1.7e-07 $layer=mcon $count=1 $X=1.55 $Y=1.48
+ $X2=1.55 $Y2=1.48
r244 65 98 32.2941 $w=1.68e-07 $l=4.95e-07 $layer=LI1_cond $X=0.69 $Y=2.96
+ $X2=0.69 $Y2=3.455
r245 64 65 9.3 $w=1.7e-07 $l=1.7e-07 $layer=mcon $count=1 $X=0.69 $Y=2.96
+ $X2=0.69 $Y2=2.96
r246 62 91 42.7326 $w=1.68e-07 $l=6.55e-07 $layer=LI1_cond $X=0.69 $Y=1.48
+ $X2=0.69 $Y2=0.825
r247 61 62 9.3 $w=1.7e-07 $l=1.7e-07 $layer=mcon $count=1 $X=0.69 $Y=1.48
+ $X2=0.69 $Y2=1.48
r248 59 88 0.0308913 $w=1.7e-07 $l=1.15e-07 $layer=MET1_cond $X=4.13 $Y=2.845
+ $X2=4.13 $Y2=2.96
r249 58 85 0.0308913 $w=1.7e-07 $l=1.15e-07 $layer=MET1_cond $X=4.13 $Y=1.595
+ $X2=4.13 $Y2=1.48
r250 58 59 1.2036 $w=1.7e-07 $l=1.25e-06 $layer=MET1_cond $X=4.13 $Y=1.595
+ $X2=4.13 $Y2=2.845
r251 57 82 0.103375 $w=2.3e-07 $l=1.45e-07 $layer=MET1_cond $X=3.415 $Y=2.96
+ $X2=3.27 $Y2=2.96
r252 56 88 0.0389498 $w=1.7e-07 $l=1.45e-07 $layer=MET1_cond $X=3.985 $Y=2.96
+ $X2=4.13 $Y2=2.96
r253 56 57 0.548843 $w=1.7e-07 $l=5.7e-07 $layer=MET1_cond $X=3.985 $Y=2.96
+ $X2=3.415 $Y2=2.96
r254 55 79 0.103375 $w=2.3e-07 $l=1.45e-07 $layer=MET1_cond $X=3.415 $Y=1.48
+ $X2=3.27 $Y2=1.48
r255 54 85 0.0389498 $w=1.7e-07 $l=1.45e-07 $layer=MET1_cond $X=3.985 $Y=1.48
+ $X2=4.13 $Y2=1.48
r256 54 55 0.548843 $w=1.7e-07 $l=5.7e-07 $layer=MET1_cond $X=3.985 $Y=1.48
+ $X2=3.415 $Y2=1.48
r257 53 82 0.0257089 $w=1.7e-07 $l=1.15e-07 $layer=MET1_cond $X=3.27 $Y=2.845
+ $X2=3.27 $Y2=2.96
r258 52 79 0.0257089 $w=1.7e-07 $l=1.15e-07 $layer=MET1_cond $X=3.27 $Y=1.595
+ $X2=3.27 $Y2=1.48
r259 52 53 1.2036 $w=1.7e-07 $l=1.25e-06 $layer=MET1_cond $X=3.27 $Y=1.595
+ $X2=3.27 $Y2=2.845
r260 51 76 0.103375 $w=2.3e-07 $l=1.45e-07 $layer=MET1_cond $X=2.555 $Y=2.96
+ $X2=2.41 $Y2=2.96
r261 50 82 0.103375 $w=2.3e-07 $l=1.45e-07 $layer=MET1_cond $X=3.125 $Y=2.96
+ $X2=3.27 $Y2=2.96
r262 50 51 0.548843 $w=1.7e-07 $l=5.7e-07 $layer=MET1_cond $X=3.125 $Y=2.96
+ $X2=2.555 $Y2=2.96
r263 49 73 0.103375 $w=2.3e-07 $l=1.45e-07 $layer=MET1_cond $X=2.555 $Y=1.48
+ $X2=2.41 $Y2=1.48
r264 48 79 0.103375 $w=2.3e-07 $l=1.45e-07 $layer=MET1_cond $X=3.125 $Y=1.48
+ $X2=3.27 $Y2=1.48
r265 48 49 0.548843 $w=1.7e-07 $l=5.7e-07 $layer=MET1_cond $X=3.125 $Y=1.48
+ $X2=2.555 $Y2=1.48
r266 47 76 0.0257089 $w=1.7e-07 $l=1.15e-07 $layer=MET1_cond $X=2.41 $Y=2.845
+ $X2=2.41 $Y2=2.96
r267 46 73 0.0257089 $w=1.7e-07 $l=1.15e-07 $layer=MET1_cond $X=2.41 $Y=1.595
+ $X2=2.41 $Y2=1.48
r268 46 47 1.2036 $w=1.7e-07 $l=1.25e-06 $layer=MET1_cond $X=2.41 $Y=1.595
+ $X2=2.41 $Y2=2.845
r269 45 70 0.103375 $w=2.3e-07 $l=1.45e-07 $layer=MET1_cond $X=1.695 $Y=2.96
+ $X2=1.55 $Y2=2.96
r270 44 76 0.103375 $w=2.3e-07 $l=1.45e-07 $layer=MET1_cond $X=2.265 $Y=2.96
+ $X2=2.41 $Y2=2.96
r271 44 45 0.548843 $w=1.7e-07 $l=5.7e-07 $layer=MET1_cond $X=2.265 $Y=2.96
+ $X2=1.695 $Y2=2.96
r272 43 67 0.103375 $w=2.3e-07 $l=1.45e-07 $layer=MET1_cond $X=1.695 $Y=1.48
+ $X2=1.55 $Y2=1.48
r273 42 73 0.103375 $w=2.3e-07 $l=1.45e-07 $layer=MET1_cond $X=2.265 $Y=1.48
+ $X2=2.41 $Y2=1.48
r274 42 43 0.548843 $w=1.7e-07 $l=5.7e-07 $layer=MET1_cond $X=2.265 $Y=1.48
+ $X2=1.695 $Y2=1.48
r275 41 70 0.0257089 $w=1.7e-07 $l=1.15e-07 $layer=MET1_cond $X=1.55 $Y=2.845
+ $X2=1.55 $Y2=2.96
r276 40 67 0.0257089 $w=1.7e-07 $l=1.15e-07 $layer=MET1_cond $X=1.55 $Y=1.595
+ $X2=1.55 $Y2=1.48
r277 40 41 1.2036 $w=1.7e-07 $l=1.25e-06 $layer=MET1_cond $X=1.55 $Y=1.595
+ $X2=1.55 $Y2=2.845
r278 39 64 0.0389498 $w=1.7e-07 $l=1.45e-07 $layer=MET1_cond $X=0.835 $Y=2.96
+ $X2=0.69 $Y2=2.96
r279 38 70 0.103375 $w=2.3e-07 $l=1.45e-07 $layer=MET1_cond $X=1.405 $Y=2.96
+ $X2=1.55 $Y2=2.96
r280 38 39 0.548843 $w=1.7e-07 $l=5.7e-07 $layer=MET1_cond $X=1.405 $Y=2.96
+ $X2=0.835 $Y2=2.96
r281 37 61 0.0389498 $w=1.7e-07 $l=1.45e-07 $layer=MET1_cond $X=0.835 $Y=1.48
+ $X2=0.69 $Y2=1.48
r282 36 67 0.103375 $w=2.3e-07 $l=1.45e-07 $layer=MET1_cond $X=1.405 $Y=1.48
+ $X2=1.55 $Y2=1.48
r283 36 37 0.548843 $w=1.7e-07 $l=5.7e-07 $layer=MET1_cond $X=1.405 $Y=1.48
+ $X2=0.835 $Y2=1.48
r284 32 64 0.0308913 $w=1.7e-07 $l=1.15e-07 $layer=MET1_cond $X=0.69 $Y=2.845
+ $X2=0.69 $Y2=2.96
r285 32 34 0.621059 $w=1.7e-07 $l=6.45e-07 $layer=MET1_cond $X=0.69 $Y=2.845
+ $X2=0.69 $Y2=2.2
r286 31 61 0.0308913 $w=1.7e-07 $l=1.15e-07 $layer=MET1_cond $X=0.69 $Y=1.595
+ $X2=0.69 $Y2=1.48
r287 31 34 0.582544 $w=1.7e-07 $l=6.05e-07 $layer=MET1_cond $X=0.69 $Y=1.595
+ $X2=0.69 $Y2=2.2
r288 10 148 150 $w=1.7e-07 $l=2.81913e-06 $layer=licon1_PDIFF $count=4 $X=3.99
+ $Y=3.085 $X2=4.13 $Y2=5.835
r289 10 146 150 $w=1.7e-07 $l=4.34396e-07 $layer=licon1_PDIFF $count=4 $X=3.99
+ $Y=3.085 $X2=4.13 $Y2=3.455
r290 9 136 150 $w=1.7e-07 $l=2.81913e-06 $layer=licon1_PDIFF $count=4 $X=3.13
+ $Y=3.085 $X2=3.27 $Y2=5.835
r291 9 134 150 $w=1.7e-07 $l=4.34396e-07 $layer=licon1_PDIFF $count=4 $X=3.13
+ $Y=3.085 $X2=3.27 $Y2=3.455
r292 8 124 150 $w=1.7e-07 $l=2.81913e-06 $layer=licon1_PDIFF $count=4 $X=2.27
+ $Y=3.085 $X2=2.41 $Y2=5.835
r293 8 122 150 $w=1.7e-07 $l=4.34396e-07 $layer=licon1_PDIFF $count=4 $X=2.27
+ $Y=3.085 $X2=2.41 $Y2=3.455
r294 7 112 150 $w=1.7e-07 $l=2.81913e-06 $layer=licon1_PDIFF $count=4 $X=1.41
+ $Y=3.085 $X2=1.55 $Y2=5.835
r295 7 110 150 $w=1.7e-07 $l=4.34396e-07 $layer=licon1_PDIFF $count=4 $X=1.41
+ $Y=3.085 $X2=1.55 $Y2=3.455
r296 6 100 150 $w=1.7e-07 $l=2.81913e-06 $layer=licon1_PDIFF $count=4 $X=0.55
+ $Y=3.085 $X2=0.69 $Y2=5.835
r297 6 98 150 $w=1.7e-07 $l=4.34396e-07 $layer=licon1_PDIFF $count=4 $X=0.55
+ $Y=3.085 $X2=0.69 $Y2=3.455
r298 5 139 91 $w=1.7e-07 $l=3.1225e-07 $layer=licon1_NDIFF $count=2 $X=3.99
+ $Y=0.575 $X2=4.13 $Y2=0.825
r299 4 127 91 $w=1.7e-07 $l=3.1225e-07 $layer=licon1_NDIFF $count=2 $X=3.13
+ $Y=0.575 $X2=3.27 $Y2=0.825
r300 3 115 91 $w=1.7e-07 $l=3.1225e-07 $layer=licon1_NDIFF $count=2 $X=2.27
+ $Y=0.575 $X2=2.41 $Y2=0.825
r301 2 103 91 $w=1.7e-07 $l=3.1225e-07 $layer=licon1_NDIFF $count=2 $X=1.41
+ $Y=0.575 $X2=1.55 $Y2=0.825